# NWT package for MODFLOW-NWT generated by Flopy 3.3.6
 1.000e-03 6.000e+02       600 1.000e-05         2         1         1   COMPLEX
