# WEL package for MODFLOW-NWT generated by Flopy 3.3.6
        30         0 
        20         0 # stress period 1
         1        37        25         -328.32
         1        37        26          -118.8
         1        38        27          -19.44
         1        37        28          -69.12
         1        37        31          -30.24
         1        89       184         -319.68
         1        84       248         -136.08
         1        83       249         -103.68
         1        93       258          -518.4
         1        90       259          -777.6
         1       101       277         -241.92
         1       101       278         -665.28
         1        99       279           -64.8
         1        97       280        -403.488
         1        99       280          -61.56
         1        98       281           -43.2
         1       102       281          -51.84
         1        99       282          -216.0
         1       102       282          -69.12
         1        99       283           -2.16
        20         0 # stress period 2
         1        37        25         -3283.2
         1        37        26         -1188.0
         1        38        27          -194.4
         1        37        28          -691.2
         1        37        31          -302.4
         1        89       184         -3196.8
         1        84       248         -1360.8
         1        83       249         -1036.8
         1        93       258         -5184.0
         1        90       259         -7776.0
         1       101       277         -2419.2
         1       101       278         -6652.8
         1        99       279          -648.0
         1        97       280        -4034.88
         1        99       280          -615.6
         1        98       281          -432.0
         1       102       281          -518.4
         1        99       282         -2160.0
         1       102       282          -691.2
         1        99       283           -21.6
        20         0 # stress period 3
         1        37        25         -3283.2
         1        37        26         -1188.0
         1        38        27          -194.4
         1        37        28          -691.2
         1        37        31          -302.4
         1        89       184         -3196.8
         1        84       248         -1360.8
         1        83       249         -1036.8
         1        93       258         -5184.0
         1        90       259         -7776.0
         1       101       277         -2419.2
         1       101       278         -6652.8
         1        99       279          -648.0
         1        97       280        -4034.88
         1        99       280          -615.6
         1        98       281          -432.0
         1       102       281          -518.4
         1        99       282         -2160.0
         1       102       282          -691.2
         1        99       283           -21.6
        20         0 # stress period 4
         1        37        25         -3283.2
         1        37        26         -1188.0
         1        38        27          -194.4
         1        37        28          -691.2
         1        37        31          -302.4
         1        89       184         -3196.8
         1        84       248         -1360.8
         1        83       249         -1036.8
         1        93       258         -5184.0
         1        90       259         -7776.0
         1       101       277         -2419.2
         1       101       278         -6652.8
         1        99       279          -648.0
         1        97       280        -4034.88
         1        99       280          -615.6
         1        98       281          -432.0
         1       102       281          -518.4
         1        99       282         -2160.0
         1       102       282          -691.2
         1        99       283           -21.6
        20         0 # stress period 5
         1        37        25         -3283.2
         1        37        26         -1188.0
         1        38        27          -194.4
         1        37        28          -691.2
         1        37        31          -302.4
         1        89       184         -3196.8
         1        84       248         -1360.8
         1        83       249         -1036.8
         1        93       258         -5184.0
         1        90       259         -7776.0
         1       101       277         -2419.2
         1       101       278         -6652.8
         1        99       279          -648.0
         1        97       280        -4034.88
         1        99       280          -615.6
         1        98       281          -432.0
         1       102       281          -518.4
         1        99       282         -2160.0
         1       102       282          -691.2
         1        99       283           -21.6
        20         0 # stress period 6
         1        37        25         -3283.2
         1        37        26         -1188.0
         1        38        27          -194.4
         1        37        28          -691.2
         1        37        31          -302.4
         1        89       184         -3196.8
         1        84       248         -1360.8
         1        83       249         -1036.8
         1        93       258         -5184.0
         1        90       259         -7776.0
         1       101       277         -2419.2
         1       101       278         -6652.8
         1        99       279          -648.0
         1        97       280        -4034.88
         1        99       280          -615.6
         1        98       281          -432.0
         1       102       281          -518.4
         1        99       282         -2160.0
         1       102       282          -691.2
         1        99       283           -21.6
        20         0 # stress period 7
         1        37        25         -3283.2
         1        37        26         -1188.0
         1        38        27          -194.4
         1        37        28          -691.2
         1        37        31          -302.4
         1        89       184         -3196.8
         1        84       248         -1360.8
         1        83       249         -1036.8
         1        93       258         -5184.0
         1        90       259         -7776.0
         1       101       277         -2419.2
         1       101       278         -6652.8
         1        99       279          -648.0
         1        97       280        -4034.88
         1        99       280          -615.6
         1        98       281          -432.0
         1       102       281          -518.4
         1        99       282         -2160.0
         1       102       282          -691.2
         1        99       283           -21.6
        20         0 # stress period 8
         1        37        25         -3283.2
         1        37        26         -1188.0
         1        38        27          -194.4
         1        37        28          -691.2
         1        37        31          -302.4
         1        89       184         -3196.8
         1        84       248         -1360.8
         1        83       249         -1036.8
         1        93       258         -5184.0
         1        90       259         -7776.0
         1       101       277         -2419.2
         1       101       278         -6652.8
         1        99       279          -648.0
         1        97       280        -4034.88
         1        99       280          -615.6
         1        98       281          -432.0
         1       102       281          -518.4
         1        99       282         -2160.0
         1       102       282          -691.2
         1        99       283           -21.6
        20         0 # stress period 9
         1        37        25         -3283.2
         1        37        26         -1188.0
         1        38        27          -194.4
         1        37        28          -691.2
         1        37        31          -302.4
         1        89       184         -3196.8
         1        84       248         -1360.8
         1        83       249         -1036.8
         1        93       258         -5184.0
         1        90       259         -7776.0
         1       101       277         -2419.2
         1       101       278         -6652.8
         1        99       279          -648.0
         1        97       280        -4034.88
         1        99       280          -615.6
         1        98       281          -432.0
         1       102       281          -518.4
         1        99       282         -2160.0
         1       102       282          -691.2
         1        99       283           -21.6
        20         0 # stress period 10
         1        37        25         -3283.2
         1        37        26         -1188.0
         1        38        27          -194.4
         1        37        28          -691.2
         1        37        31          -302.4
         1        89       184         -3196.8
         1        84       248         -1360.8
         1        83       249         -1036.8
         1        93       258         -5184.0
         1        90       259         -7776.0
         1       101       277         -2419.2
         1       101       278         -6652.8
         1        99       279          -648.0
         1        97       280        -4034.88
         1        99       280          -615.6
         1        98       281          -432.0
         1       102       281          -518.4
         1        99       282         -2160.0
         1       102       282          -691.2
         1        99       283           -21.6
        20         0 # stress period 11
         1        37        25         -3283.2
         1        37        26         -1188.0
         1        38        27          -194.4
         1        37        28          -691.2
         1        37        31          -302.4
         1        89       184         -3196.8
         1        84       248         -1360.8
         1        83       249         -1036.8
         1        93       258         -5184.0
         1        90       259         -7776.0
         1       101       277         -2419.2
         1       101       278         -6652.8
         1        99       279          -648.0
         1        97       280        -4034.88
         1        99       280          -615.6
         1        98       281          -432.0
         1       102       281          -518.4
         1        99       282         -2160.0
         1       102       282          -691.2
         1        99       283           -21.6
        20         0 # stress period 12
         1        37        25         -3283.2
         1        37        26         -1188.0
         1        38        27          -194.4
         1        37        28          -691.2
         1        37        31          -302.4
         1        89       184         -3196.8
         1        84       248         -1360.8
         1        83       249         -1036.8
         1        93       258         -5184.0
         1        90       259         -7776.0
         1       101       277         -2419.2
         1       101       278         -6652.8
         1        99       279          -648.0
         1        97       280        -4034.88
         1        99       280          -615.6
         1        98       281          -432.0
         1       102       281          -518.4
         1        99       282         -2160.0
         1       102       282          -691.2
         1        99       283           -21.6
        20         0 # stress period 13
         1        37        25         -3283.2
         1        37        26         -1188.0
         1        38        27          -194.4
         1        37        28          -691.2
         1        37        31          -302.4
         1        89       184         -3196.8
         1        84       248         -1360.8
         1        83       249         -1036.8
         1        93       258         -5184.0
         1        90       259         -7776.0
         1       101       277         -2419.2
         1       101       278         -6652.8
         1        99       279          -648.0
         1        97       280        -4034.88
         1        99       280          -615.6
         1        98       281          -432.0
         1       102       281          -518.4
         1        99       282         -2160.0
         1       102       282          -691.2
         1        99       283           -21.6
        20         0 # stress period 14
         1        37        25         -3283.2
         1        37        26         -1188.0
         1        38        27          -194.4
         1        37        28          -691.2
         1        37        31          -302.4
         1        89       184         -3196.8
         1        84       248         -1360.8
         1        83       249         -1036.8
         1        93       258         -5184.0
         1        90       259         -7776.0
         1       101       277         -2419.2
         1       101       278         -6652.8
         1        99       279          -648.0
         1        97       280        -4034.88
         1        99       280          -615.6
         1        98       281          -432.0
         1       102       281          -518.4
         1        99       282         -2160.0
         1       102       282          -691.2
         1        99       283           -21.6
        20         0 # stress period 15
         1        37        25         -3283.2
         1        37        26         -1188.0
         1        38        27          -194.4
         1        37        28          -691.2
         1        37        31          -302.4
         1        89       184         -3196.8
         1        84       248         -1360.8
         1        83       249         -1036.8
         1        93       258         -5184.0
         1        90       259         -7776.0
         1       101       277         -2419.2
         1       101       278         -6652.8
         1        99       279          -648.0
         1        97       280        -4034.88
         1        99       280          -615.6
         1        98       281          -432.0
         1       102       281          -518.4
         1        99       282         -2160.0
         1       102       282          -691.2
         1        99       283           -21.6
        20         0 # stress period 16
         1        37        25         -3283.2
         1        37        26         -1188.0
         1        38        27          -194.4
         1        37        28          -691.2
         1        37        31          -302.4
         1        89       184         -3196.8
         1        84       248         -1360.8
         1        83       249         -1036.8
         1        93       258         -5184.0
         1        90       259         -7776.0
         1       101       277         -2419.2
         1       101       278         -6652.8
         1        99       279          -648.0
         1        97       280        -4034.88
         1        99       280          -615.6
         1        98       281          -432.0
         1       102       281          -518.4
         1        99       282         -2160.0
         1       102       282          -691.2
         1        99       283           -21.6
        20         0 # stress period 17
         1        37        25         -3283.2
         1        37        26         -1188.0
         1        38        27          -194.4
         1        37        28          -691.2
         1        37        31          -302.4
         1        89       184         -3196.8
         1        84       248         -1360.8
         1        83       249         -1036.8
         1        93       258         -5184.0
         1        90       259         -7776.0
         1       101       277         -2419.2
         1       101       278         -6652.8
         1        99       279          -648.0
         1        97       280        -4034.88
         1        99       280          -615.6
         1        98       281          -432.0
         1       102       281          -518.4
         1        99       282         -2160.0
         1       102       282          -691.2
         1        99       283           -21.6
        20         0 # stress period 18
         1        37        25         -3283.2
         1        37        26         -1188.0
         1        38        27          -194.4
         1        37        28          -691.2
         1        37        31          -302.4
         1        89       184         -3196.8
         1        84       248         -1360.8
         1        83       249         -1036.8
         1        93       258         -5184.0
         1        90       259         -7776.0
         1       101       277         -2419.2
         1       101       278         -6652.8
         1        99       279          -648.0
         1        97       280        -4034.88
         1        99       280          -615.6
         1        98       281          -432.0
         1       102       281          -518.4
         1        99       282         -2160.0
         1       102       282          -691.2
         1        99       283           -21.6
        20         0 # stress period 19
         1        37        25         -3283.2
         1        37        26         -1188.0
         1        38        27          -194.4
         1        37        28          -691.2
         1        37        31          -302.4
         1        89       184         -3196.8
         1        84       248         -1360.8
         1        83       249         -1036.8
         1        93       258         -5184.0
         1        90       259         -7776.0
         1       101       277         -2419.2
         1       101       278         -6652.8
         1        99       279          -648.0
         1        97       280        -4034.88
         1        99       280          -615.6
         1        98       281          -432.0
         1       102       281          -518.4
         1        99       282         -2160.0
         1       102       282          -691.2
         1        99       283           -21.6
        20         0 # stress period 20
         1        37        25         -3283.2
         1        37        26         -1188.0
         1        38        27          -194.4
         1        37        28          -691.2
         1        37        31          -302.4
         1        89       184         -3196.8
         1        84       248         -1360.8
         1        83       249         -1036.8
         1        93       258         -5184.0
         1        90       259         -7776.0
         1       101       277         -2419.2
         1       101       278         -6652.8
         1        99       279          -648.0
         1        97       280        -4034.88
         1        99       280          -615.6
         1        98       281          -432.0
         1       102       281          -518.4
         1        99       282         -2160.0
         1       102       282          -691.2
         1        99       283           -21.6
        20         0 # stress period 21
         1        37        25         -3283.2
         1        37        26         -1188.0
         1        38        27          -194.4
         1        37        28          -691.2
         1        37        31          -302.4
         1        89       184         -3196.8
         1        84       248         -1360.8
         1        83       249         -1036.8
         1        93       258         -5184.0
         1        90       259         -7776.0
         1       101       277         -2419.2
         1       101       278         -6652.8
         1        99       279          -648.0
         1        97       280        -4034.88
         1        99       280          -615.6
         1        98       281          -432.0
         1       102       281          -518.4
         1        99       282         -2160.0
         1       102       282          -691.2
         1        99       283           -21.6
        20         0 # stress period 22
         1        37        25         -3283.2
         1        37        26         -1188.0
         1        38        27          -194.4
         1        37        28          -691.2
         1        37        31          -302.4
         1        89       184         -3196.8
         1        84       248         -1360.8
         1        83       249         -1036.8
         1        93       258         -5184.0
         1        90       259         -7776.0
         1       101       277         -2419.2
         1       101       278         -6652.8
         1        99       279          -648.0
         1        97       280        -4034.88
         1        99       280          -615.6
         1        98       281          -432.0
         1       102       281          -518.4
         1        99       282         -2160.0
         1       102       282          -691.2
         1        99       283           -21.6
        20         0 # stress period 23
         1        37        25         -3283.2
         1        37        26         -1188.0
         1        38        27          -194.4
         1        37        28          -691.2
         1        37        31          -302.4
         1        89       184         -3196.8
         1        84       248         -1360.8
         1        83       249         -1036.8
         1        93       258         -5184.0
         1        90       259         -7776.0
         1       101       277         -2419.2
         1       101       278         -6652.8
         1        99       279          -648.0
         1        97       280        -4034.88
         1        99       280          -615.6
         1        98       281          -432.0
         1       102       281          -518.4
         1        99       282         -2160.0
         1       102       282          -691.2
         1        99       283           -21.6
        20         0 # stress period 24
         1        37        25         -3283.2
         1        37        26         -1188.0
         1        38        27          -194.4
         1        37        28          -691.2
         1        37        31          -302.4
         1        89       184         -3196.8
         1        84       248         -1360.8
         1        83       249         -1036.8
         1        93       258         -5184.0
         1        90       259         -7776.0
         1       101       277         -2419.2
         1       101       278         -6652.8
         1        99       279          -648.0
         1        97       280        -4034.88
         1        99       280          -615.6
         1        98       281          -432.0
         1       102       281          -518.4
         1        99       282         -2160.0
         1       102       282          -691.2
         1        99       283           -21.6
        20         0 # stress period 25
         1        37        25         -3283.2
         1        37        26         -1188.0
         1        38        27          -194.4
         1        37        28          -691.2
         1        37        31          -302.4
         1        89       184         -3196.8
         1        84       248         -1360.8
         1        83       249         -1036.8
         1        93       258         -5184.0
         1        90       259         -7776.0
         1       101       277         -2419.2
         1       101       278         -6652.8
         1        99       279          -648.0
         1        97       280        -4034.88
         1        99       280          -615.6
         1        98       281          -432.0
         1       102       281          -518.4
         1        99       282         -2160.0
         1       102       282          -691.2
         1        99       283           -21.6
        20         0 # stress period 26
         1        37        25         -3283.2
         1        37        26         -1188.0
         1        38        27          -194.4
         1        37        28          -691.2
         1        37        31          -302.4
         1        89       184         -3196.8
         1        84       248         -1360.8
         1        83       249         -1036.8
         1        93       258         -5184.0
         1        90       259         -7776.0
         1       101       277         -2419.2
         1       101       278         -6652.8
         1        99       279          -648.0
         1        97       280        -4034.88
         1        99       280          -615.6
         1        98       281          -432.0
         1       102       281          -518.4
         1        99       282         -2160.0
         1       102       282          -691.2
         1        99       283           -21.6
        20         0 # stress period 27
         1        37        25         -3283.2
         1        37        26         -1188.0
         1        38        27          -194.4
         1        37        28          -691.2
         1        37        31          -302.4
         1        89       184         -3196.8
         1        84       248         -1360.8
         1        83       249         -1036.8
         1        93       258         -5184.0
         1        90       259         -7776.0
         1       101       277         -2419.2
         1       101       278         -6652.8
         1        99       279          -648.0
         1        97       280        -4034.88
         1        99       280          -615.6
         1        98       281          -432.0
         1       102       281          -518.4
         1        99       282         -2160.0
         1       102       282          -691.2
         1        99       283           -21.6
        20         0 # stress period 28
         1        37        25         -3283.2
         1        37        26         -1188.0
         1        38        27          -194.4
         1        37        28          -691.2
         1        37        31          -302.4
         1        89       184         -3196.8
         1        84       248         -1360.8
         1        83       249         -1036.8
         1        93       258         -5184.0
         1        90       259         -7776.0
         1       101       277         -2419.2
         1       101       278         -6652.8
         1        99       279          -648.0
         1        97       280        -4034.88
         1        99       280          -615.6
         1        98       281          -432.0
         1       102       281          -518.4
         1        99       282         -2160.0
         1       102       282          -691.2
         1        99       283           -21.6
        20         0 # stress period 29
         1        37        25         -3283.2
         1        37        26         -1188.0
         1        38        27          -194.4
         1        37        28          -691.2
         1        37        31          -302.4
         1        89       184         -3196.8
         1        84       248         -1360.8
         1        83       249         -1036.8
         1        93       258         -5184.0
         1        90       259         -7776.0
         1       101       277         -2419.2
         1       101       278         -6652.8
         1        99       279          -648.0
         1        97       280        -4034.88
         1        99       280          -615.6
         1        98       281          -432.0
         1       102       281          -518.4
         1        99       282         -2160.0
         1       102       282          -691.2
         1        99       283           -21.6
        20         0 # stress period 30
         1        37        25         -3283.2
         1        37        26         -1188.0
         1        38        27          -194.4
         1        37        28          -691.2
         1        37        31          -302.4
         1        89       184         -3196.8
         1        84       248         -1360.8
         1        83       249         -1036.8
         1        93       258         -5184.0
         1        90       259         -7776.0
         1       101       277         -2419.2
         1       101       278         -6652.8
         1        99       279          -648.0
         1        97       280        -4034.88
         1        99       280          -615.6
         1        98       281          -432.0
         1       102       281          -518.4
         1        99       282         -2160.0
         1       102       282          -691.2
         1        99       283           -21.6
        20         0 # stress period 31
         1        37        25         -3283.2
         1        37        26         -1188.0
         1        38        27          -194.4
         1        37        28          -691.2
         1        37        31          -302.4
         1        89       184         -3196.8
         1        84       248         -1360.8
         1        83       249         -1036.8
         1        93       258         -5184.0
         1        90       259         -7776.0