# UPW package for MODFLOW-NWT generated by Flopy 3.3.6
         9      -888         0         0 
         1         1
         0         0
  -1.000000E+00  -1.000000E+00
         0         0
         0         0
INTERNAL               1     (FREE) 12 #hk                            
   2.100000E-05   2.100000E-05   2.100000E-05   2.100000E-05   2.100000E-05   2.100000E-05   2.100000E-05   2.100000E-05   2.100000E-05   2.100000E-05   2.100000E-05   2.100000E-05   2.100000E-05   2.100000E-05   2.100000E-05   2.100000E-05   2.100000E-05   2.100000E-05   2.100000E-05   2.100000E-05   2.100000E-05   2.100000E-05   2.100000E-05   2.100000E-05   2.100000E-05   2.100000E-05   2.100000E-05   2.100000E-05   2.100000E-05   2.100000E-05   2.100000E-05   2.100000E-05   2.100000E-05   2.100000E-05   2.100000E-05   2.100000E-05   2.100000E-05   2.100000E-05   2.100000E-05   2.100000E-05   2.100000E-05   2.100000E-05   2.100000E-05   2.100000E-05   2.100000E-05   2.100000E-05   2.100000E-05   2.100000E-05   2.100000E-05   2.100000E-05   2.100000E-05   2.100000E-05   2.100000E-05   2.100000E-05   2.100000E-05   2.100000E-05   2.100000E-05   2.100000E-05   2.100000E-05   2.100000E-05   2.100000E-05   2.100000E-05   2.100000E-05   2.100000E-05   2.100000E-05   2.100000E-05   2.100000E-05   2.100000E-05   2.100000E-05   2.100000E-05   2.100000E-05   2.100000E-05   2.100000E-05   2.100000E-05   2.100000E-05   2.100000E-05   2.100000E-05   2.100000E-05   2.100000E-05   2.100000E-05   2.100000E-05   2.100000E-05   2.100000E-05   2.100000E-05   2.100000E-05   2.100000E-05   2.100000E-05   2.100000E-05   2.100000E-05   2.100000E-05   2.100000E-05   2.100000E-05   2.100000E-05   2.100000E-05   2.100000E-05   2.100000E-05   2.100000E-05   2.100000E-05   2.100000E-05   2.100000E-05   2.100000E-05   2.100000E-05   2.100000E-05   2.100000E-05   2.100000E-05   2.100000E-05   2.100000E-05   2.100000E-05   2.100000E-05   2.100000E-05   2.100000E-05   2.100000E-05   2.100000E-05   2.100000E-05   2.100000E-05   2.100000E-05   2.100000E-05   2.100000E-05   2.100000E-05   2.100000E-05   2.100000E-05   2.100000E-05   2.100000E-05   2.100000E-05   2.100000E-05   2.100000E-05   2.100000E-05   2.100000E-05   2.100000E-05   2.100000E-05   2.100000E-05   2.100000E-05   2.100000E-05   2.100000E-05   2.100000E-05   2.100000E-05   2.100000E-05   2.100000E-05   2.100000E-05   2.100000E-05   2.100000E-05   2.100000E-05   2.100000E-05   2.100000E-05   2.100000E-05   2.100000E-05   2.100000E-05   2.100000E-05   2.100000E-05   2.100000E-05   2.100000E-05   2.100000E-05   2.100000E-05   2.100000E-05   2.100000E-05   2.100000E-05   2.100000E-05   2.100000E-05   2.100000E-05   2.100000E-05   2.100000E-05   2.100000E-05   2.100000E-05   2.100000E-05   2.100000E-05   2.100000E-05   2.100000E-05   2.100000E-05   2.100000E-05   2.100000E-05   2.100000E-05   2.100000E-05   2.100000E-05   2.100000E-05   2.100000E-05   2.100000E-05   2.100000E-05   2.100000E-05   2.100000E-05   2.100000E-05   2.100000E-05   2.100000E-05   2.100000E-05   2.100000E-05   2.100000E-05   2.100000E-05   2.100000E-05   2.100000E-05   2.100000E-05   2.100000E-05   2.100000E-05   2.100000E-05   2.100000E-05   2.100000E-05   2.100000E-05   2.100000E-05   2.100000E-05   2.100000E-05   2.100000E-05   2.100000E-05   2.100000E-05   2.100000E-05   2.100000E-05   2.100000E-05   2.100000E-05   2.100000E-05   2.100000E-05   2.100000E-05   2.100000E-05   2.100000E-05   2.100000E-05   2.100000E-05   2.100000E-05   2.100000E-05   2.100000E-05   2.100000E-05   2.100000E-05   2.100000E-05   2.100000E-05   2.100000E-05   2.100000E-05   2.100000E-05   2.100000E-05   2.100000E-05   2.100000E-05   2.100000E-05   2.100000E-05   2.100000E-05   2.100000E-05   2.100000E-05   2.100000E-05   2.100000E-05   2.100000E-05   2.100000E-05   2.100000E-05   2.100000E-05   2.100000E-05   2.100000E-05   2.100000E-05   2.100000E-05   2.100000E-05   2.100000E-05   2.100000E-05   2.100000E-05   2.100000E-05   2.100000E-05   2.100000E-05   2.100000E-05   2.100000E-05   2.100000E-05   2.100000E-05   2.100000E-05   2.100000E-05   2.100000E-05   2.100000E-05   2.100000E-05   2.100000E-05   2.100000E-05   2.100000E-05   2.100000E-05   2.100000E-05   2.100000E-05   2.100000E-05   2.100000E-05   2.100000E-05   2.100000E-05   2.100000E-05   2.100000E-05   2.100000E-05   2.100000E-05   2.100000E-05   2.100000E-05   2.100000E-05   2.100000E-05   2.100000E-05   2.100000E-05   2.100000E-05   2.100000E-05   2.100000E-05   2.100000E-05   2.100000E-05   2.100000E-05   2.100000E-05   2.100000E-05   2.100000E-05   2.100000E-05   2.100000E-05   2.100000E-05   2.100000E-05   2.100000E-05   2.100000E-05   2.100000E-05   2.100000E-05   2.100000E-05   2.100000E-05   2.100000E-05   2.100000E-05   2.100000E-05   2.100000E-05   2.100000E-05   2.100000E-05   2.100000E-05   2.100000E-05   2.100000E-05   2.100000E-05   2.100000E-05   2.100000E-05   2.100000E-05   2.100000E-05   2.100000E-05   2.100000E-05   2.100000E-05   2.100000E-05   2.100000E-05
   2.100000E-05   2.100000E-05   2.100000E-05   2.100000E-05   2.100000E-05   2.100000E-05   2.100000E-05   2.100000E-05   2.100000E-05   2.100000E-05   2.100000E-05   2.100000E-05   2.100000E-05   2.100000E-05   2.100000E-05   2.100000E-05   2.100000E-05   2.100000E-05   2.100000E-05   2.100000E-05   2.100000E-05   2.100000E-05   2.100000E-05   2.100000E-05   2.100000E-05   2.100000E-05   2.100000E-05   2.100000E-05   2.100000E-05   2.100000E-05   2.100000E-05   2.100000E-05   2.100000E-05   2.100000E-05   2.100000E-05   2.100000E-05   2.100000E-05   2.100000E-05   2.100000E-05   2.100000E-05   2.100000E-05   2.100000E-05   2.100000E-05   2.100000E-05   2.100000E-05   2.100000E-05   2.100000E-05   2.100000E-05   2.100000E-05   2.100000E-05   2.100000E-05   2.100000E-05   2.100000E-05   2.100000E-05   2.100000E-05   2.100000E-05   2.100000E-05   2.100000E-05   2.100000E-05   2.100000E-05   2.100000E-05   2.100000E-05   2.100000E-05   2.100000E-05   2.100000E-05   2.100000E-05   2.100000E-05   2.100000E-05   2.100000E-05   2.100000E-05   2.100000E-05   2.100000E-05   2.100000E-05   2.100000E-05   2.100000E-05   2.100000E-05   2.100000E-05   2.100000E-05   2.100000E-05   2.100000E-05   2.100000E-05   2.100000E-05   2.100000E-05   2.100000E-05   2.100000E-05   2.100000E-05   2.100000E-05   2.100000E-05   2.100000E-05   2.100000E-05   2.100000E-05   2.100000E-05   2.100000E-05   2.100000E-05   2.100000E-05   2.100000E-05   2.100000E-05   2.100000E-05   2.100000E-05   2.100000E-05   2.100000E-05   2.100000E-05   2.100000E-05   2.100000E-05   2.100000E-05   2.100000E-05   2.100000E-05   2.100000E-05   2.100000E-05   2.100000E-05   2.100000E-05   2.100000E-05   2.100000E-05   2.100000E-05   2.100000E-05   2.100000E-05   2.100000E-05   2.100000E-05   2.100000E-05   2.100000E-05   2.100000E-05   2.100000E-05   2.100000E-05   2.100000E-05   2.100000E-05   2.100000E-05   2.100000E-05   2.100000E-05   2.100000E-05   2.100000E-05   2.100000E-05   2.100000E-05   2.100000E-05   2.100000E-05   2.100000E-05   2.100000E-05   2.100000E-05   2.100000E-05   2.100000E-05   2.100000E-05   2.100000E-05   2.100000E-05   2.100000E-05   2.100000E-05   2.100000E-05   2.100000E-05   2.100000E-05   2.100000E-05   2.100000E-05   2.100000E-05   2.100000E-05   2.100000E-05   2.100000E-05   2.100000E-05   2.100000E-05   2.100000E-05   2.100000E-05   2.100000E-05   2.100000E-05   2.100000E-05   2.100000E-05   2.100000E-05   2.100000E-05   2.100000E-05   2.100000E-05   2.100000E-05   2.100000E-05   2.100000E-05   2.100000E-05   2.100000E-05   2.100000E-05   2.100000E-05   2.100000E-05   2.100000E-05   2.100000E-05   2.100000E-05   2.100000E-05   2.100000E-05   2.100000E-05   2.100000E-05   2.100000E-05   2.100000E-05   2.100000E-05   2.100000E-05   2.100000E-05   2.100000E-05   2.100000E-05   2.100000E-05   2.100000E-05   2.100000E-05   2.100000E-05   2.100000E-05   2.100000E-05   2.100000E-05   2.100000E-05   2.100000E-05   2.100000E-05   2.100000E-05   2.100000E-05   2.100000E-05   2.100000E-05   2.100000E-05   2.100000E-05   2.100000E-05   2.100000E-05   2.100000E-05   2.100000E-05   2.100000E-05   2.100000E-05   2.100000E-05   2.100000E-05   2.100000E-05   2.100000E-05   2.100000E-05   2.100000E-05   2.100000E-05   2.100000E-05   2.100000E-05   2.100000E-05   2.100000E-05   2.100000E-05   2.100000E-05   2.100000E-05   2.100000E-05   2.100000E-05   2.100000E-05   2.100000E-05   2.100000E-05   2.100000E-05   2.100000E-05   2.100000E-05   2.100000E-05   2.100000E-05   2.100000E-05   2.100000E-05   2.100000E-05   2.100000E-05   2.100000E-05   2.100000E-05   2.100000E-05   2.100000E-05   2.100000E-05   2.100000E-05   2.100000E-05   2.100000E-05   2.100000E-05   2.100000E-05   2.100000E-05   2.100000E-05   2.100000E-05   2.100000E-05   2.100000E-05   2.100000E-05   2.100000E-05   2.100000E-05   2.100000E-05   2.100000E-05   2.100000E-05   2.100000E-05   2.100000E-05   2.100000E-05   2.100000E-05   2.100000E-05   2.100000E-05   2.100000E-05   2.100000E-05   2.100000E-05   2.100000E-05   2.100000E-05   2.100000E-05   2.100000E-05   2.100000E-05   2.100000E-05   2.100000E-05   2.100000E-05   2.100000E-05   2.100000E-05   2.100000E-05   2.100000E-05   2.100000E-05   2.100000E-05   2.100000E-05   2.100000E-05   2.100000E-05   2.100000E-05   2.100000E-05   2.100000E-05   2.100000E-05   2.100000E-05   2.100000E-05   2.100000E-05   2.100000E-05   2.100000E-05   2.100000E-05   2.100000E-05   2.100000E-05   2.100000E-05   2.100000E-05   2.100000E-05   2.100000E-05   2.100000E-05   2.100000E-05   2.100000E-05   2.100000E-05   2.100000E-05   2.100000E-05   2.100000E-05   2.100000E-05   2.100000E-05   2.100000E-05   2.100000E-05   2.100000E-05   2.100000E-05   2.100000E-05
   2.100000E-05   2.100000E-05   2.100000E-05   2.100000E-05   2.100000E-05   2.100000E-05   2.100000E-05   2.100000E-05   2.100000E-05   2.100000E-05   2.100000E-05   2.100000E-05   2.100000E-05   2.100000E-05   2.100000E-05   2.100000E-05   2.100000E-05   2.100000E-05   2.100000E-05   2.100000E-05   2.100000E-05   2.100000E-05   2.100000E-05   2.100000E-05   2.100000E-05   2.100000E-05   2.100000E-05   2.100000E-05   2.100000E-05   2.100000E-05   2.100000E-05   2.100000E-05   2.100000E-05   2.100000E-05   2.100000E-05   2.100000E-05   2.100000E-05   2.100000E-05   2.100000E-05   2.100000E-05   2.100000E-05   2.100000E-05   2.100000E-05   2.100000E-05   2.100000E-05   2.100000E-05   2.100000E-05   2.100000E-05   2.100000E-05   2.100000E-05   2.100000E-05   2.100000E-05   2.100000E-05   2.100000E-05   2.100000E-05   2.100000E-05   2.100000E-05   2.100000E-05   2.100000E-05   2.100000E-05   2.100000E-05   2.100000E-05   2.100000E-05   2.100000E-05   2.100000E-05   2.100000E-05   2.100000E-05   2.100000E-05   2.100000E-05   2.100000E-05   2.100000E-05   2.100000E-05   2.100000E-05   2.100000E-05   2.100000E-05   2.100000E-05   2.100000E-05   2.100000E-05   2.100000E-05   2.100000E-05   2.100000E-05   2.100000E-05   2.100000E-05   2.100000E-05   2.100000E-05   2.100000E-05   2.100000E-05   2.100000E-05   2.100000E-05   2.100000E-05   2.100000E-05   2.100000E-05   2.100000E-05   2.100000E-05   2.100000E-05   2.100000E-05   2.100000E-05   2.100000E-05   2.100000E-05   2.100000E-05   2.100000E-05   2.100000E-05   2.100000E-05   2.100000E-05   2.100000E-05   2.100000E-05   2.100000E-05   2.100000E-05   2.100000E-05   2.100000E-05   2.100000E-05   2.100000E-05   2.100000E-05   2.100000E-05   2.100000E-05   2.100000E-05   2.100000E-05   2.100000E-05   2.100000E-05   2.100000E-05   2.100000E-05   2.100000E-05   2.100000E-05   2.100000E-05   2.100000E-05   2.100000E-05   2.100000E-05   2.100000E-05   2.100000E-05   2.100000E-05   2.100000E-05   2.100000E-05   2.100000E-05   2.100000E-05   2.100000E-05   2.100000E-05   2.100000E-05   2.100000E-05   2.100000E-05   2.100000E-05   2.100000E-05   2.100000E-05   2.100000E-05   2.100000E-05   2.100000E-05   2.100000E-05   2.100000E-05   2.100000E-05   2.100000E-05   2.100000E-05   2.100000E-05   2.100000E-05   2.100000E-05   2.100000E-05   2.100000E-05   2.100000E-05   2.100000E-05   2.100000E-05   2.100000E-05   2.100000E-05   2.100000E-05   2.100000E-05   2.100000E-05   2.100000E-05   2.100000E-05   2.100000E-05   2.100000E-05   2.100000E-05   2.100000E-05   2.100000E-05   2.100000E-05   2.100000E-05   2.100000E-05   2.100000E-05   2.100000E-05   2.100000E-05   2.100000E-05   2.100000E-05   2.100000E-05   2.100000E-05   2.100000E-05   2.100000E-05   2.100000E-05   2.100000E-05   2.100000E-05   2.100000E-05   2.100000E-05   2.100000E-05   2.100000E-05   2.100000E-05   2.100000E-05   2.100000E-05   2.100000E-05   2.100000E-05   2.100000E-05   2.100000E-05   2.100000E-05   2.100000E-05   2.100000E-05   2.100000E-05   2.100000E-05   2.100000E-05   2.100000E-05   2.100000E-05   2.100000E-05   2.100000E-05   2.100000E-05   2.100000E-05   2.100000E-05   2.100000E-05   2.100000E-05   2.100000E-05   2.100000E-05   2.100000E-05   2.100000E-05   2.100000E-05   2.100000E-05   2.100000E-05   2.100000E-05   2.100000E-05   2.100000E-05   2.100000E-05   2.100000E-05   2.100000E-05   2.100000E-05   2.100000E-05   2.100000E-05   2.100000E-05   2.100000E-05   2.100000E-05   2.100000E-05   2.100000E-05   2.100000E-05   2.100000E-05   2.100000E-05   2.100000E-05   2.100000E-05   2.100000E-05   2.100000E-05   2.100000E-05   2.100000E-05   2.100000E-05   2.100000E-05   2.100000E-05   2.100000E-05   2.100000E-05   2.100000E-05   2.100000E-05   2.100000E-05   2.100000E-05   2.100000E-05   2.100000E-05   2.100000E-05   2.100000E-05   2.100000E-05   2.100000E-05   2.100000E-05   2.100000E-05   2.100000E-05   2.100000E-05   2.100000E-05   2.100000E-05   2.100000E-05   2.100000E-05   2.100000E-05   2.100000E-05   2.100000E-05   2.100000E-05   2.100000E-05   2.100000E-05   2.100000E-05   2.100000E-05   2.100000E-05   2.100000E-05   2.100000E-05   2.100000E-05   2.100000E-05   2.100000E-05   2.100000E-05   2.100000E-05   2.100000E-05   2.100000E-05   2.100000E-05   2.100000E-05   2.100000E-05   2.100000E-05   2.100000E-05   2.100000E-05   2.100000E-05   2.100000E-05   2.100000E-05   2.100000E-05   2.100000E-05   2.100000E-05   2.100000E-05   2.100000E-05   2.100000E-05   2.100000E-05   2.100000E-05   2.100000E-05   2.100000E-05   2.100000E-05   2.100000E-05   2.100000E-05   2.100000E-05   2.100000E-05   2.100000E-05   2.100000E-05   2.100000E-05   2.100000E-05   2.100000E-05   2.100000E-05   2.100000E-05   2.100000E-05
   2.100000E-05   2.100000E-05   2.100000E-05   2.100000E-05   2.100000E-05   2.100000E-05   2.100000E-05   2.100000E-05   2.100000E-05   2.100000E-05   2.100000E-05   2.100000E-05   2.100000E-05   2.100000E-05   2.100000E-05   2.100000E-05   2.100000E-05   2.100000E-05   2.100000E-05   2.100000E-05   2.100000E-05   2.100000E-05   2.100000E-05   2.100000E-05   2.100000E-05   2.100000E-05   2.100000E-05   2.100000E-05   2.100000E-05   2.100000E-05   2.100000E-05   2.100000E-05   2.100000E-05   2.100000E-05   2.100000E-05   2.100000E-05   2.100000E-05   2.100000E-05   2.100000E-05   2.100000E-05   2.100000E-05   2.100000E-05   2.100000E-05   2.100000E-05   2.100000E-05   2.100000E-05   2.100000E-05   2.100000E-05   2.100000E-05   2.100000E-05   2.100000E-05   2.100000E-05   2.100000E-05   2.100000E-05   2.100000E-05   2.100000E-05   2.100000E-05   2.100000E-05   2.100000E-05   2.100000E-05   2.100000E-05   2.100000E-05   2.100000E-05   2.100000E-05   2.100000E-05   2.100000E-05   2.100000E-05   2.100000E-05   2.100000E-05   2.100000E-05   2.100000E-05   2.100000E-05   2.100000E-05   2.100000E-05   2.100000E-05   2.100000E-05   2.100000E-05   2.100000E-05   2.100000E-05   2.100000E-05   2.100000E-05   2.100000E-05   2.100000E-05   2.100000E-05   2.100000E-05   2.100000E-05   2.100000E-05   2.100000E-05   2.100000E-05   2.100000E-05   2.100000E-05   2.100000E-05   2.100000E-05   2.100000E-05   2.100000E-05   2.100000E-05   2.100000E-05   2.100000E-05   2.100000E-05   2.100000E-05   2.100000E-05   2.100000E-05   2.100000E-05   2.100000E-05   2.100000E-05   2.100000E-05   2.100000E-05   2.100000E-05   2.100000E-05   2.100000E-05   2.100000E-05   2.100000E-05   2.100000E-05   2.100000E-05   2.100000E-05   2.100000E-05   2.100000E-05   2.100000E-05   2.100000E-05   2.100000E-05   2.100000E-05   2.100000E-05   2.100000E-05   2.100000E-05   2.100000E-05   2.100000E-05   2.100000E-05   2.100000E-05   2.100000E-05   2.100000E-05   2.100000E-05   2.100000E-05   2.100000E-05   2.100000E-05   2.100000E-05   2.100000E-05   2.100000E-05   2.100000E-05   2.100000E-05   2.100000E-05   2.100000E-05   2.100000E-05   2.100000E-05   2.100000E-05   2.100000E-05   2.100000E-05   2.100000E-05   2.100000E-05   2.100000E-05   2.100000E-05   2.100000E-05   2.100000E-05   2.100000E-05   2.100000E-05   2.100000E-05   2.100000E-05   2.100000E-05   2.100000E-05   2.100000E-05   2.100000E-05   2.100000E-05   2.100000E-05   2.100000E-05   2.100000E-05   2.100000E-05   2.100000E-05   2.100000E-05   2.100000E-05   2.100000E-05   2.100000E-05   2.100000E-05   2.100000E-05   2.100000E-05   2.100000E-05   2.100000E-05   2.100000E-05   2.100000E-05   2.100000E-05   2.100000E-05   2.100000E-05   2.100000E-05   2.100000E-05   2.100000E-05   2.100000E-05   2.100000E-05   2.100000E-05   2.100000E-05   2.100000E-05   2.100000E-05   2.100000E-05   2.100000E-05   2.100000E-05   2.100000E-05   2.100000E-05   2.100000E-05   2.100000E-05   2.100000E-05   2.100000E-05   2.100000E-05   2.100000E-05   2.100000E-05   2.100000E-05   2.100000E-05   2.100000E-05   2.100000E-05   2.100000E-05   2.100000E-05   2.100000E-05   2.100000E-05   2.100000E-05   2.100000E-05   2.100000E-05   2.100000E-05   2.100000E-05   2.100000E-05   2.100000E-05   2.100000E-05   2.100000E-05   2.100000E-05   2.100000E-05   2.100000E-05   2.100000E-05   2.100000E-05   2.100000E-05   2.100000E-05   2.100000E-05   2.100000E-05   2.100000E-05   2.100000E-05   2.100000E-05   2.100000E-05   2.100000E-05   2.100000E-05   2.100000E-05   2.100000E-05   2.100000E-05   2.100000E-05   2.100000E-05   2.100000E-05   2.100000E-05   2.100000E-05   2.100000E-05   2.100000E-05   2.100000E-05   2.100000E-05   2.100000E-05   2.100000E-05   2.100000E-05   2.100000E-05   2.100000E-05   2.100000E-05   2.100000E-05   2.100000E-05   2.100000E-05   2.100000E-05   2.100000E-05   2.100000E-05   2.100000E-05   2.100000E-05   2.100000E-05   2.100000E-05   2.100000E-05   2.100000E-05   2.100000E-05   2.100000E-05   2.100000E-05   2.100000E-05   2.100000E-05   2.100000E-05   2.100000E-05   2.100000E-05   2.100000E-05   2.100000E-05   2.100000E-05   2.100000E-05   2.100000E-05   2.100000E-05   2.100000E-05   2.100000E-05   2.100000E-05   2.100000E-05   2.100000E-05   2.100000E-05   2.100000E-05   2.100000E-05   2.100000E-05   2.100000E-05   2.100000E-05   2.100000E-05   2.100000E-05   2.100000E-05   2.100000E-05   2.100000E-05   2.100000E-05   2.100000E-05   2.100000E-05   2.100000E-05   2.100000E-05   2.100000E-05   2.100000E-05   2.100000E-05   2.100000E-05   2.100000E-05   2.100000E-05   2.100000E-05   2.100000E-05   2.100000E-05   2.100000E-05   2.100000E-05   2.100000E-05   2.100000E-05   2.100000E-05   2.100000E-05   2.100000E-05
   2.100000E-05   2.100000E-05   2.100000E-05   2.100000E-05   2.100000E-05   2.100000E-05   2.100000E-05   2.100000E-05   2.100000E-05   2.100000E-05   2.100000E-05   2.100000E-05   2.100000E-05   2.100000E-05   2.100000E-05   2.100000E-05   2.100000E-05   2.100000E-05   2.100000E-05   2.100000E-05   2.100000E-05   2.100000E-05   2.100000E-05   2.100000E-05   2.100000E-05   2.100000E-05   2.100000E-05   2.100000E-05   2.100000E-05   2.100000E-05   2.100000E-05   2.100000E-05   2.100000E-05   2.100000E-05   2.100000E-05   2.100000E-05   2.100000E-05   2.100000E-05   2.100000E-05   2.100000E-05   2.100000E-05   2.100000E-05   2.100000E-05   2.100000E-05   2.100000E-05   2.100000E-05   2.100000E-05   2.100000E-05   2.100000E-05   2.100000E-05   2.100000E-05   2.100000E-05   2.100000E-05   2.100000E-05   2.100000E-05   2.100000E-05   2.100000E-05   2.100000E-05   2.100000E-05   2.100000E-05   2.100000E-05   2.100000E-05   2.100000E-05   2.100000E-05   2.100000E-05   2.100000E-05   2.100000E-05   2.100000E-05   2.100000E-05   2.100000E-05   2.100000E-05   2.100000E-05   2.100000E-05   2.100000E-05   2.100000E-05   2.100000E-05   2.100000E-05   2.100000E-05   2.100000E-05   2.100000E-05   2.100000E-05   2.100000E-05   2.100000E-05   2.100000E-05   2.100000E-05   2.100000E-05   2.100000E-05   2.100000E-05   2.100000E-05   2.100000E-05   2.100000E-05   2.100000E-05   2.100000E-05   2.100000E-05   2.100000E-05   2.100000E-05   2.100000E-05   2.100000E-05   2.100000E-05   2.100000E-05   2.100000E-05   2.100000E-05   2.100000E-05   2.100000E-05   2.100000E-05   2.100000E-05   2.100000E-05   2.100000E-05   2.100000E-05   2.100000E-05   2.100000E-05   2.100000E-05   2.100000E-05   2.100000E-05   2.100000E-05   2.100000E-05   2.100000E-05   2.100000E-05   2.100000E-05   2.100000E-05   2.100000E-05   2.100000E-05   2.100000E-05   2.100000E-05   2.100000E-05   2.100000E-05   2.100000E-05   2.100000E-05   2.100000E-05   2.100000E-05   2.100000E-05   2.100000E-05   2.100000E-05   2.100000E-05   2.100000E-05   2.100000E-05   2.100000E-05   2.100000E-05   2.100000E-05   2.100000E-05   2.100000E-05   2.100000E-05   2.100000E-05   2.100000E-05   2.100000E-05   2.100000E-05   2.100000E-05   2.100000E-05   2.100000E-05   2.100000E-05   2.100000E-05   2.100000E-05   2.100000E-05   2.100000E-05   2.100000E-05   2.100000E-05   2.100000E-05   2.100000E-05   2.100000E-05   2.100000E-05   2.100000E-05   2.100000E-05   2.100000E-05   2.100000E-05   2.100000E-05   2.100000E-05   2.100000E-05   2.100000E-05   2.100000E-05   2.100000E-05   2.100000E-05   2.100000E-05   2.100000E-05   2.100000E-05   2.100000E-05   2.100000E-05   2.100000E-05   2.100000E-05   2.100000E-05   2.100000E-05   2.100000E-05   2.100000E-05   2.100000E-05   2.100000E-05   2.100000E-05   2.100000E-05   2.100000E-05   2.100000E-05   2.100000E-05   2.100000E-05   2.100000E-05   2.100000E-05   2.100000E-05   2.100000E-05   2.100000E-05   2.100000E-05   2.100000E-05   2.100000E-05   2.100000E-05   2.100000E-05   2.100000E-05   2.100000E-05   2.100000E-05   2.100000E-05   2.100000E-05   2.100000E-05   2.100000E-05   2.100000E-05   2.100000E-05   2.100000E-05   2.100000E-05   2.100000E-05   2.100000E-05   2.100000E-05   2.100000E-05   2.100000E-05   2.100000E-05   2.100000E-05   2.100000E-05   2.100000E-05   2.100000E-05   2.100000E-05   2.100000E-05   2.100000E-05   2.100000E-05   2.100000E-05   2.100000E-05   2.100000E-05   2.100000E-05   2.100000E-05   2.100000E-05   2.100000E-05   2.100000E-05   2.100000E-05   2.100000E-05   2.100000E-05   2.100000E-05   2.100000E-05   2.100000E-05   2.100000E-05   2.100000E-05   2.100000E-05   2.100000E-05   2.100000E-05   2.100000E-05   2.100000E-05   2.100000E-05   2.100000E-05   2.100000E-05   2.100000E-05   2.100000E-05   2.100000E-05   2.100000E-05   2.100000E-05   2.100000E-05   2.100000E-05   2.100000E-05   2.100000E-05   2.100000E-05   2.100000E-05   2.100000E-05   2.100000E-05   2.100000E-05   2.100000E-05   2.100000E-05   2.100000E-05   2.100000E-05   2.100000E-05   2.100000E-05   2.100000E-05   2.100000E-05   2.100000E-05   2.100000E-05   2.100000E-05   2.100000E-05   2.100000E-05   2.100000E-05   2.100000E-05   2.100000E-05   2.100000E-05   2.100000E-05   2.100000E-05   2.100000E-05   2.100000E-05   2.100000E-05   2.100000E-05   2.100000E-05   2.100000E-05   2.100000E-05   2.100000E-05   2.100000E-05   2.100000E-05   2.100000E-05   2.100000E-05   2.100000E-05   2.100000E-05   2.100000E-05   2.100000E-05   2.100000E-05   2.100000E-05   2.100000E-05   2.100000E-05   2.100000E-05   2.100000E-05   2.100000E-05   2.100000E-05   2.100000E-05   2.100000E-05   2.100000E-05   2.100000E-05   2.100000E-05   2.100000E-05   2.100000E-05   2.100000E-05
   2.100000E-05   2.100000E-05   2.100000E-05   2.100000E-05   2.100000E-05   2.100000E-05   2.100000E-05   2.100000E-05   2.100000E-05   2.100000E-05   2.100000E-05   2.100000E-05   2.100000E-05   2.100000E-05   2.100000E-05   2.100000E-05   2.100000E-05   2.100000E-05   2.100000E-05   2.100000E-05   2.100000E-05   2.100000E-05   2.100000E-05   2.100000E-05   2.100000E-05   2.100000E-05   2.100000E-05   2.100000E-05   2.100000E-05   2.100000E-05   2.100000E-05   2.100000E-05   2.100000E-05   2.100000E-05   2.100000E-05   2.100000E-05   2.100000E-05   2.100000E-05   2.100000E-05   2.100000E-05   2.100000E-05   2.100000E-05   2.100000E-05   2.100000E-05   2.100000E-05   2.100000E-05   2.100000E-05   2.100000E-05   2.100000E-05   2.100000E-05   2.100000E-05   2.100000E-05   2.100000E-05   2.100000E-05   2.100000E-05   2.100000E-05   2.100000E-05   2.100000E-05   2.100000E-05   2.100000E-05   2.100000E-05   2.100000E-05   2.100000E-05   2.100000E-05   2.100000E-05   2.100000E-05   2.100000E-05   2.100000E-05   2.100000E-05   2.100000E-05   2.100000E-05   2.100000E-05   2.100000E-05   2.100000E-05   2.100000E-05   2.100000E-05   2.100000E-05   2.100000E-05   2.100000E-05   2.100000E-05   2.100000E-05   2.100000E-05   2.100000E-05   2.100000E-05   2.100000E-05   2.100000E-05   2.100000E-05   2.100000E-05   2.100000E-05   2.100000E-05   2.100000E-05   2.100000E-05   2.100000E-05   2.100000E-05   2.100000E-05   2.100000E-05   2.100000E-05   2.100000E-05   2.100000E-05   2.100000E-05   2.100000E-05   2.100000E-05   2.100000E-05   2.100000E-05   2.100000E-05   2.100000E-05   2.100000E-05   2.100000E-05   2.100000E-05   2.100000E-05   2.100000E-05   2.100000E-05   2.100000E-05   2.100000E-05   2.100000E-05   2.100000E-05   2.100000E-05   2.100000E-05   2.100000E-05   2.100000E-05   2.100000E-05   2.100000E-05   2.100000E-05   2.100000E-05   2.100000E-05   2.100000E-05   2.100000E-05   2.100000E-05   2.100000E-05   2.100000E-05   2.100000E-05   2.100000E-05   2.100000E-05   2.100000E-05   2.100000E-05   2.100000E-05   2.100000E-05   2.100000E-05   2.100000E-05   2.100000E-05   2.100000E-05   2.100000E-05   2.100000E-05   2.100000E-05   2.100000E-05   2.100000E-05   2.100000E-05   2.100000E-05   2.100000E-05   2.100000E-05   2.100000E-05   2.100000E-05   2.100000E-05   2.100000E-05   2.100000E-05   2.100000E-05   2.100000E-05   2.100000E-05   2.100000E-05   2.100000E-05   2.100000E-05   2.100000E-05   2.100000E-05   2.100000E-05   2.100000E-05   2.100000E-05   2.100000E-05   2.100000E-05   2.100000E-05   2.100000E-05   2.100000E-05   2.100000E-05   2.100000E-05   2.100000E-05   2.100000E-05   2.100000E-05   2.100000E-05   2.100000E-05   2.100000E-05   2.100000E-05   2.100000E-05   2.100000E-05   2.100000E-05   2.100000E-05   2.100000E-05   2.100000E-05   2.100000E-05   2.100000E-05   2.100000E-05   2.100000E-05   2.100000E-05   2.100000E-05   2.100000E-05   2.100000E-05   2.100000E-05   2.100000E-05   2.100000E-05   2.100000E-05   2.100000E-05   2.100000E-05   2.100000E-05   2.100000E-05   2.100000E-05   2.100000E-05   2.100000E-05   2.100000E-05   2.100000E-05   2.100000E-05   2.100000E-05   2.100000E-05   2.100000E-05   2.100000E-05   2.100000E-05   2.100000E-05   2.100000E-05   2.100000E-05   2.100000E-05   2.100000E-05   2.100000E-05   2.100000E-05   2.100000E-05   2.100000E-05   2.100000E-05   2.100000E-05   2.100000E-05   2.100000E-05   2.100000E-05   2.100000E-05   2.100000E-05   2.100000E-05   2.100000E-05   2.100000E-05   2.100000E-05   2.100000E-05   2.100000E-05   2.100000E-05   2.100000E-05   2.100000E-05   2.100000E-05   2.100000E-05   2.100000E-05   2.100000E-05   2.100000E-05   2.100000E-05   2.100000E-05   2.100000E-05   2.100000E-05   2.100000E-05   2.100000E-05   2.100000E-05   2.100000E-05   2.100000E-05   2.100000E-05   2.100000E-05   2.100000E-05   2.100000E-05   2.100000E-05   2.100000E-05   2.100000E-05   2.100000E-05   2.100000E-05   2.100000E-05   2.100000E-05   2.100000E-05   2.100000E-05   2.100000E-05   2.100000E-05   2.100000E-05   2.100000E-05   2.100000E-05   2.100000E-05   2.100000E-05   2.100000E-05   2.100000E-05   2.100000E-05   2.100000E-05   2.100000E-05   2.100000E-05   2.100000E-05   2.100000E-05   2.100000E-05   2.100000E-05   2.100000E-05   2.100000E-05   2.100000E-05   2.100000E-05   2.100000E-05   2.100000E-05   2.100000E-05   2.100000E-05   2.100000E-05   2.100000E-05   2.100000E-05   2.100000E-05   2.100000E-05   2.100000E-05   2.100000E-05   2.100000E-05   2.100000E-05   2.100000E-05   2.100000E-05   2.100000E-05   2.100000E-05   2.100000E-05   2.100000E-05   2.100000E-05   2.100000E-05   2.100000E-05   2.100000E-05   2.100000E-05   2.100000E-05   2.100000E-05   2.100000E-05   2.100000E-05