# MODFLOW2000 Constant-Head Boundary Package (CHD)
        23
        23         0
         1        11        13     0.000     0.000
         1        12        13     0.000     0.000
         1        13        13     0.000     0.000
         1        14        13     0.000     0.000
         1        15        13     0.000     0.000
         1        16        13     0.000     0.000
         1        18        12     0.000     0.000
         1        19        12     0.000     0.000
         1        20        12     0.000     0.000
         1        21        11     0.000     0.000
         1        22        11     0.000     0.000
         1        23        10     0.000     0.000
         1        24        10     0.000     0.000
         1        25         9     0.000     0.000
         1        26         9     0.000     0.000
         1        27         8     0.000     0.000
         1        28         7     0.000     0.000
         1        29         7     0.000     0.000
         1        30         6     0.000     0.000
         1        31         6     0.000     0.000
         1        32         5     0.000     0.000
         1       108       292 420.00000 420.00000
         1       108       293 420.00000 420.00000
        23         0
         1        11        13     0.000     0.000
         1        12        13     0.000     0.000
         1        13        13     0.000     0.000
         1        14        13     0.000     0.000
         1        15        13     0.000     0.000
         1        16        13     0.000     0.000
         1        18        12     0.000     0.000
         1        19        12     0.000     0.000
         1        20        12     0.000     0.000
         1        21        11     0.000     0.000
         1        22        11     0.000     0.000
         1        23        10     0.000     0.000
         1        24        10     0.000     0.000
         1        25         9     0.000     0.000
         1        26         9     0.000     0.000
         1        27         8     0.000     0.000
         1        28         7     0.000     0.000
         1        29         7     0.000     0.000
         1        30         6     0.000     0.000
         1        31         6     0.000     0.000
         1        32         5     0.000     0.000
         1       108       292 420.00000 420.00000
         1       108       293 420.00000 420.00000
        23         0
         1        11        13     0.000     0.000
         1        12        13     0.000     0.000
         1        13        13     0.000     0.000
         1        14        13     0.000     0.000
         1        15        13     0.000     0.000
         1        16        13     0.000     0.000
         1        18        12     0.000     0.000
         1        19        12     0.000     0.000
         1        20        12     0.000     0.000
         1        21        11     0.000     0.000
         1        22        11     0.000     0.000
         1        23        10     0.000     0.000
         1        24        10     0.000     0.000
         1        25         9     0.000     0.000
         1        26         9     0.000     0.000
         1        27         8     0.000     0.000
         1        28         7     0.000     0.000
         1        29         7     0.000     0.000
         1        30         6     0.000     0.000
         1        31         6     0.000     0.000
         1        32         5     0.000     0.000
         1       108       292 420.00000 420.00000
         1       108       293 420.00000 420.00000
        23         0
         1        11        13     0.000     0.000
         1        12        13     0.000     0.000
         1        13        13     0.000     0.000
         1        14        13     0.000     0.000
         1        15        13     0.000     0.000
         1        16        13     0.000     0.000
         1        18        12     0.000     0.000
         1        19        12     0.000     0.000
         1        20        12     0.000     0.000
         1        21        11     0.000     0.000
         1        22        11     0.000     0.000
         1        23        10     0.000     0.000
         1        24        10     0.000     0.000
         1        25         9     0.000     0.000
         1        26         9     0.000     0.000
         1        27         8     0.000     0.000
         1        28         7     0.000     0.000
         1        29         7     0.000     0.000
         1        30         6     0.000     0.000
         1        31         6     0.000     0.000
         1        32         5     0.000     0.000
         1       108       292 420.00000 420.00000
         1       108       293 420.00000 420.00000
        23         0
         1        11        13     0.000     0.000
         1        12        13     0.000     0.000
         1        13        13     0.000     0.000
         1        14        13     0.000     0.000
         1        15        13     0.000     0.000
         1        16        13     0.000     0.000
         1        18        12     0.000     0.000
         1        19        12     0.000     0.000
         1        20        12     0.000     0.000
         1        21        11     0.000     0.000
         1        22        11     0.000     0.000
         1        23        10     0.000     0.000
         1        24        10     0.000     0.000
         1        25         9     0.000     0.000
         1        26         9     0.000     0.000
         1        27         8     0.000     0.000
         1        28         7     0.000     0.000
         1        29         7     0.000     0.000
         1        30         6     0.000     0.000
         1        31         6     0.000     0.000
         1        32         5     0.000     0.000
         1       108       292 420.00000 420.00000
         1       108       293 420.00000 420.00000
        23         0
         1        11        13     0.000     0.000
         1        12        13     0.000     0.000
         1        13        13     0.000     0.000
         1        14        13     0.000     0.000
         1        15        13     0.000     0.000
         1        16        13     0.000     0.000
         1        18        12     0.000     0.000
         1        19        12     0.000     0.000
         1        20        12     0.000     0.000
         1        21        11     0.000     0.000
         1        22        11     0.000     0.000
         1        23        10     0.000     0.000
         1        24        10     0.000     0.000
         1        25         9     0.000     0.000
         1        26         9     0.000     0.000
         1        27         8     0.000     0.000
         1        28         7     0.000     0.000
         1        29         7     0.000     0.000
         1        30         6     0.000     0.000
         1        31         6     0.000     0.000
         1        32         5     0.000     0.000
         1       108       292 420.00000 420.00000
         1       108       293 420.00000 420.00000
        23         0
         1        11        13     0.000     0.000
         1        12        13     0.000     0.000
         1        13        13     0.000     0.000
         1        14        13     0.000     0.000
         1        15        13     0.000     0.000
         1        16        13     0.000     0.000
         1        18        12     0.000     0.000
         1        19        12     0.000     0.000
         1        20        12     0.000     0.000
         1        21        11     0.000     0.000
         1        22        11     0.000     0.000
         1        23        10     0.000     0.000
         1        24        10     0.000     0.000
         1        25         9     0.000     0.000
         1        26         9     0.000     0.000
         1        27         8     0.000     0.000
         1        28         7     0.000     0.000
         1        29         7     0.000     0.000
         1        30         6     0.000     0.000
         1        31         6     0.000     0.000
         1        32         5     0.000     0.000
         1       108       292 420.00000 420.00000
         1       108       293 420.00000 420.00000
        23         0
         1        11        13     0.000     0.000
         1        12        13     0.000     0.000
         1        13        13     0.000     0.000
         1        14        13     0.000     0.000
         1        15        13     0.000     0.000
         1        16        13     0.000     0.000
         1        18        12     0.000     0.000
         1        19        12     0.000     0.000
         1        20        12     0.000     0.000
         1        21        11     0.000     0.000
         1        22        11     0.000     0.000
         1        23        10     0.000     0.000
         1        24        10     0.000     0.000
         1        25         9     0.000     0.000
         1        26         9     0.000     0.000
         1        27         8     0.000     0.000
         1        28         7     0.000     0.000
         1        29         7     0.000     0.000
         1        30         6     0.000     0.000
         1        31         6     0.000     0.000
         1        32         5     0.000     0.000
         1       108       292 420.00000 420.00000
         1       108       293 420.00000 420.00000
        23         0
         1        11        13     0.000     0.000
         1        12        13     0.000     0.000
         1        13        13     0.000     0.000
         1        14        13     0.000     0.000
         1        15        13     0.000     0.000
         1        16        13     0.000     0.000
         1        18        12     0.000     0.000
         1        19        12     0.000     0.000
         1        20        12     0.000     0.000
         1        21        11     0.000     0.000
         1        22        11     0.000     0.000
         1        23        10     0.000     0.000
         1        24        10     0.000     0.000
         1        25         9     0.000     0.000
         1        26         9     0.000     0.000
         1        27         8     0.000     0.000
         1        28         7     0.000     0.000
         1        29         7     0.000     0.000
         1        30         6     0.000     0.000
         1        31         6     0.000     0.000
         1        32         5     0.000     0.000
         1       108       292 420.00000 420.00000
         1       108       293 420.00000 420.00000
        23         0
         1        11        13     0.000     0.000
         1        12        13     0.000     0.000
         1        13        13     0.000     0.000
         1        14        13     0.000     0.000
         1        15        13     0.000     0.000
         1        16        13     0.000     0.000
         1        18        12     0.000     0.000
         1        19        12     0.000     0.000
         1        20        12     0.000     0.000
         1        21        11     0.000     0.000
         1        22        11     0.000     0.000
         1        23        10     0.000     0.000
         1        24        10     0.000     0.000
         1        25         9     0.000     0.000
         1        26         9     0.000     0.000
         1        27         8     0.000     0.000
         1        28         7     0.000     0.000
         1        29         7     0.000     0.000
         1        30         6     0.000     0.000
         1        31         6     0.000     0.000
         1        32         5     0.000     0.000
         1       108       292 420.00000 420.00000
         1       108       293 420.00000 420.00000
        23         0
         1        11        13     0.000     0.000
         1        12        13     0.000     0.000
         1        13        13     0.000     0.000
         1        14        13     0.000     0.000
         1        15        13     0.000     0.000
         1        16        13     0.000     0.000
         1        18        12     0.000     0.000
         1        19        12     0.000     0.000
         1        20        12     0.000     0.000
         1        21        11     0.000     0.000
         1        22        11     0.000     0.000
         1        23        10     0.000     0.000
         1        24        10     0.000     0.000
         1        25         9     0.000     0.000
         1        26         9     0.000     0.000
         1        27         8     0.000     0.000
         1        28         7     0.000     0.000
         1        29         7     0.000     0.000
         1        30         6     0.000     0.000
         1        31         6     0.000     0.000
         1        32         5     0.000     0.000
         1       108       292 420.00000 420.00000
         1       108       293 420.00000 420.00000
        23         0
         1        11        13     0.000     0.000
         1        12        13     0.000     0.000
         1        13        13     0.000     0.000
         1        14        13     0.000     0.000
         1        15        13     0.000     0.000
         1        16        13     0.000     0.000
         1        18        12     0.000     0.000
         1        19        12     0.000     0.000
         1        20        12     0.000     0.000
         1        21        11     0.000     0.000
         1        22        11     0.000     0.000
         1        23        10     0.000     0.000
         1        24        10     0.000     0.000
         1        25         9     0.000     0.000
         1        26         9     0.000     0.000
         1        27         8     0.000     0.000
         1        28         7     0.000     0.000
         1        29         7     0.000     0.000
         1        30         6     0.000     0.000
         1        31         6     0.000     0.000
         1        32         5     0.000     0.000
         1       108       292 420.00000 420.00000
         1       108       293 420.00000 420.00000
        23         0
         1        11        13     0.000     0.000
         1        12        13     0.000     0.000
         1        13        13     0.000     0.000
         1        14        13     0.000     0.000
         1        15        13     0.000     0.000
         1        16        13     0.000     0.000
         1        18        12     0.000     0.000
         1        19        12     0.000     0.000
         1        20        12     0.000     0.000
         1        21        11     0.000     0.000
         1        22        11     0.000     0.000
         1        23        10     0.000     0.000
         1        24        10     0.000     0.000
         1        25         9     0.000     0.000
         1        26         9     0.000     0.000
         1        27         8     0.000     0.000
         1        28         7     0.000     0.000
         1        29         7     0.000     0.000
         1        30         6     0.000     0.000
         1        31         6     0.000     0.000
         1        32         5     0.000     0.000
         1       108       292 420.00000 420.00000
         1       108       293 420.00000 420.00000
        23         0
         1        11        13     0.000     0.000
         1        12        13     0.000     0.000
         1        13        13     0.000     0.000
         1        14        13     0.000     0.000
         1        15        13     0.000     0.000
         1        16        13     0.000     0.000
         1        18        12     0.000     0.000
         1        19        12     0.000     0.000
         1        20        12     0.000     0.000
         1        21        11     0.000     0.000
         1        22        11     0.000     0.000
         1        23        10     0.000     0.000
         1        24        10     0.000     0.000
         1        25         9     0.000     0.000
         1        26         9     0.000     0.000
         1        27         8     0.000     0.000
         1        28         7     0.000     0.000
         1        29         7     0.000     0.000
         1        30         6     0.000     0.000
         1        31         6     0.000     0.000
         1        32         5     0.000     0.000
         1       108       292 420.00000 420.00000
         1       108       293 420.00000 420.00000
        23         0
         1        11        13     0.000     0.000
         1        12        13     0.000     0.000
         1        13        13     0.000     0.000
         1        14        13     0.000     0.000
         1        15        13     0.000     0.000
         1        16        13     0.000     0.000
         1        18        12     0.000     0.000
         1        19        12     0.000     0.000
         1        20        12     0.000     0.000
         1        21        11     0.000     0.000
         1        22        11     0.000     0.000
         1        23        10     0.000     0.000
         1        24        10     0.000     0.000
         1        25         9     0.000     0.000
         1        26         9     0.000     0.000
         1        27         8     0.000     0.000
         1        28         7     0.000     0.000
         1        29         7     0.000     0.000
         1        30         6     0.000     0.000
         1        31         6     0.000     0.000
         1        32         5     0.000     0.000
         1       108       292 420.00000 420.00000
         1       108       293 420.00000 420.00000
        23         0
         1        11        13     0.000     0.000
         1        12        13     0.000     0.000
         1        13        13     0.000     0.000
         1        14        13     0.000     0.000
         1        15        13     0.000     0.000
         1        16        13     0.000     0.000
         1        18        12     0.000     0.000
         1        19        12     0.000     0.000
         1        20        12     0.000     0.000
         1        21        11     0.000     0.000
         1        22        11     0.000     0.000
         1        23        10     0.000     0.000
         1        24        10     0.000     0.000
         1        25         9     0.000     0.000
         1        26         9     0.000     0.000
         1        27         8     0.000     0.000
         1        28         7     0.000     0.000
         1        29         7     0.000     0.000
         1        30         6     0.000     0.000
         1        31         6     0.000     0.000
         1        32         5     0.000     0.000
         1       108       292 420.00000 420.00000
         1       108       293 420.00000 420.00000
        23         0
         1        11        13     0.000     0.000
         1        12        13     0.000     0.000
         1        13        13     0.000     0.000
         1        14        13     0.000     0.000
         1        15        13     0.000     0.000
         1        16        13     0.000     0.000
         1        18        12     0.000     0.000
         1        19        12     0.000     0.000
         1        20        12     0.000     0.000
         1        21        11     0.000     0.000
         1        22        11     0.000     0.000
         1        23        10     0.000     0.000
         1        24        10     0.000     0.000
         1        25         9     0.000     0.000
         1        26         9     0.000     0.000
         1        27         8     0.000     0.000
         1        28         7     0.000     0.000
         1        29         7     0.000     0.000
         1        30         6     0.000     0.000
         1        31         6     0.000     0.000
         1        32         5     0.000     0.000
         1       108       292 420.00000 420.00000
         1       108       293 420.00000 420.00000
        23         0
         1        11        13     0.000     0.000
         1        12        13     0.000     0.000
         1        13        13     0.000     0.000
         1        14        13     0.000     0.000
         1        15        13     0.000     0.000
         1        16        13     0.000     0.000
         1        18        12     0.000     0.000
         1        19        12     0.000     0.000
         1        20        12     0.000     0.000
         1        21        11     0.000     0.000
         1        22        11     0.000     0.000
         1        23        10     0.000     0.000
         1        24        10     0.000     0.000
         1        25         9     0.000     0.000
         1        26         9     0.000     0.000
         1        27         8     0.000     0.000
         1        28         7     0.000     0.000
         1        29         7     0.000     0.000
         1        30         6     0.000     0.000
         1        31         6     0.000     0.000
         1        32         5     0.000     0.000
         1       108       292 420.00000 420.00000
         1       108       293 420.00000 420.00000
        23         0
         1        11        13     0.000     0.000
         1        12        13     0.000     0.000
         1        13        13     0.000     0.000
         1        14        13     0.000     0.000
         1        15        13     0.000     0.000
         1        16        13     0.000     0.000
         1        18        12     0.000     0.000
         1        19        12     0.000     0.000
         1        20        12     0.000     0.000
         1        21        11     0.000     0.000
         1        22        11     0.000     0.000
         1        23        10     0.000     0.000
         1        24        10     0.000     0.000
         1        25         9     0.000     0.000
         1        26         9     0.000     0.000
         1        27         8     0.000     0.000
         1        28         7     0.000     0.000
         1        29         7     0.000     0.000
         1        30         6     0.000     0.000
         1        31         6     0.000     0.000
         1        32         5     0.000     0.000
         1       108       292 420.00000 420.00000
         1       108       293 420.00000 420.00000
        23         0
         1        11        13     0.000     0.000
         1        12        13     0.000     0.000
         1        13        13     0.000     0.000
         1        14        13     0.000     0.000
         1        15        13     0.000     0.000
         1        16        13     0.000     0.000
         1        18        12     0.000     0.000
         1        19        12     0.000     0.000
         1        20        12     0.000     0.000
         1        21        11     0.000     0.000
         1        22        11     0.000     0.000
         1        23        10     0.000     0.000
         1        24        10     0.000     0.000
         1        25         9     0.000     0.000
         1        26         9     0.000     0.000
         1        27         8     0.000     0.000
         1        28         7     0.000     0.000
         1        29         7     0.000     0.000
         1        30         6     0.000     0.000
         1        31         6     0.000     0.000
         1        32         5     0.000     0.000
         1       108       292 420.00000 420.00000
         1       108       293 420.00000 420.00000
        23         0
         1        11        13     0.000     0.000
         1        12        13     0.000     0.000
         1        13        13     0.000     0.000
         1        14        13     0.000     0.000
         1        15        13     0.000     0.000
         1        16        13     0.000     0.000
         1        18        12     0.000     0.000
         1        19        12     0.000     0.000
         1        20        12     0.000     0.000
         1        21        11     0.000     0.000
         1        22        11     0.000     0.000
         1        23        10     0.000     0.000
         1        24        10     0.000     0.000
         1        25         9     0.000     0.000
         1        26         9     0.000     0.000
         1        27         8     0.000     0.000
         1        28         7     0.000     0.000
         1        29         7     0.000     0.000
         1        30         6     0.000     0.000
         1        31         6     0.000     0.000
         1        32         5     0.000     0.000
         1       108       292 420.00000 420.00000
         1       108       293 420.00000 420.00000
        23         0
         1        11        13     0.000     0.000
         1        12        13     0.000     0.000
         1        13        13     0.000     0.000
         1        14        13     0.000     0.000
         1        15        13     0.000     0.000
         1        16        13     0.000     0.000
         1        18        12     0.000     0.000
         1        19        12     0.000     0.000
         1        20        12     0.000     0.000
         1        21        11     0.000     0.000
         1        22        11     0.000     0.000
         1        23        10     0.000     0.000
         1        24        10     0.000     0.000
         1        25         9     0.000     0.000
         1        26         9     0.000     0.000
         1        27         8     0.000     0.000
         1        28         7     0.000     0.000
         1        29         7     0.000     0.000
         1        30         6     0.000     0.000
         1        31         6     0.000     0.000
         1        32         5     0.000     0.000
         1       108       292 420.00000 420.00000
         1       108       293 420.00000 420.00000
        23         0
         1        11        13     0.000     0.000
         1        12        13     0.000     0.000
         1        13        13     0.000     0.000
         1        14        13     0.000     0.000
         1        15        13     0.000     0.000
         1        16        13     0.000     0.000
         1        18        12     0.000     0.000
         1        19        12     0.000     0.000
         1        20        12     0.000     0.000
         1        21        11     0.000     0.000
         1        22        11     0.000     0.000
         1        23        10     0.000     0.000
         1        24        10     0.000     0.000
         1        25         9     0.000     0.000
         1        26         9     0.000     0.000
         1        27         8     0.000     0.000
         1        28         7     0.000     0.000
         1        29         7     0.000     0.000
         1        30         6     0.000     0.000
         1        31         6     0.000     0.000
         1        32         5     0.000     0.000
         1       108       292 420.00000 420.00000
         1       108       293 420.00000 420.00000
        23         0
         1        11        13     0.000     0.000
         1        12        13     0.000     0.000
         1        13        13     0.000     0.000
         1        14        13     0.000     0.000
         1        15        13     0.000     0.000
         1        16        13     0.000     0.000
         1        18        12     0.000     0.000
         1        19        12     0.000     0.000
         1        20        12     0.000     0.000
         1        21        11     0.000     0.000
         1        22        11     0.000     0.000
         1        23        10     0.000     0.000
         1        24        10     0.000     0.000
         1        25         9     0.000     0.000
         1        26         9     0.000     0.000
         1        27         8     0.000     0.000
         1        28         7     0.000     0.000
         1        29         7     0.000     0.000
         1        30         6     0.000     0.000
         1        31         6     0.000     0.000
         1        32         5     0.000     0.000
         1       108       292 420.00000 420.00000
         1       108       293 420.00000 420.00000
        23         0
         1        11        13     0.000     0.000
         1        12        13     0.000     0.000
         1        13        13     0.000     0.000
         1        14        13     0.000     0.000
         1        15        13     0.000     0.000
         1        16        13     0.000     0.000
         1        18        12     0.000     0.000
         1        19        12     0.000     0.000
         1        20        12     0.000     0.000
         1        21        11     0.000     0.000
         1        22        11     0.000     0.000
         1        23        10     0.000     0.000
         1        24        10     0.000     0.000
         1        25         9     0.000     0.000
         1        26         9     0.000     0.000
         1        27         8     0.000     0.000
         1        28         7     0.000     0.000
         1        29         7     0.000     0.000
         1        30         6     0.000     0.000
         1        31         6     0.000     0.000
         1        32         5     0.000     0.000
         1       108       292 420.00000 420.00000
         1       108       293 420.00000 420.00000
        23         0
         1        11        13     0.000     0.000