# Discretization File created on 2/3/2023 by ModelMuse version 5.1.1.0.
# MODFLOW2005 Basic Package
# MODFLOW2000 Dataset Imported into Groundwater Vistas
# Upper left corner: (0, 0)
# Lower left corner: (0, -40000.003)
# Upper right corner: (60000, 0)
# Lower right corner: (60000, -40000.003)
# Grid angle (in degrees counterclockwise): 0
     2   138   314   300     4     2 # NLAY, NROW, NCOL, NPER, ITMUNI, LENUNI
     0     0 # LAYCB
INTERNAL 1.0 (FREE)       12 # DELR
  7.500000000000E+002   7.500000000000E+002   7.500000000000E+002   7.500000000000E+002   3.750000000000E+002   1.875000000000E+002   1.875000000000E+002   1.875000000000E+002   1.875000000000E+002   1.875000000000E+002 
  1.875000000000E+002   1.875000000000E+002   1.875000000000E+002   1.875000000000E+002   1.875000000000E+002   1.875000000000E+002   1.875000000000E+002   1.875000000000E+002   1.875000000000E+002   1.875000000000E+002 
  9.375000000000E+001   9.375000000000E+001   9.375000000000E+001   9.375000000000E+001   9.375000000000E+001   9.375000000000E+001   9.375000000000E+001   9.375000000000E+001   9.375000000000E+001   9.375000000000E+001 
  9.375000000000E+001   9.375000000000E+001   9.375000000000E+001   9.375000000000E+001   9.375000000000E+001   9.375000000000E+001   9.375000000000E+001   9.375000000000E+001   9.375000000000E+001   9.375000000000E+001 
  9.375000000000E+001   9.375000000000E+001   9.375000000000E+001   9.375000000000E+001   9.375000000000E+001   9.375000000000E+001   1.875000000000E+002   1.875000000000E+002   1.875000000000E+002   1.875000000000E+002 
  1.875000000000E+002   1.875000000000E+002   1.875000000000E+002   1.875000000000E+002   1.875000000000E+002   1.875000000000E+002   1.875000000000E+002   1.875000000000E+002   1.875000000000E+002   1.875000000000E+002 
  1.875000000000E+002   1.875000000000E+002   1.875000000000E+002   1.875000000000E+002   1.875000000000E+002   1.875000000000E+002   1.875000000000E+002   1.875000000000E+002   1.875000000000E+002   1.875000000000E+002 
  1.875000000000E+002   1.875000000000E+002   1.875000000000E+002   1.875000000000E+002   1.875000000000E+002   1.875000000000E+002   1.875000000000E+002   1.875000000000E+002   1.875000000000E+002   1.875000000000E+002 
  1.875000000000E+002   1.875000000000E+002   1.875000000000E+002   1.875000000000E+002   1.875000000000E+002   1.875000000000E+002   1.875000000000E+002   1.875000000000E+002   1.875000000000E+002   1.875000000000E+002 
  1.875000000000E+002   1.875000000000E+002   1.875000000000E+002   1.875000000000E+002   1.875000000000E+002   1.875000000000E+002   1.875000000000E+002   1.875000000000E+002   1.875000000000E+002   1.875000000000E+002 
  1.875000000000E+002   1.875000000000E+002   1.875000000000E+002   1.875000000000E+002   1.875000000000E+002   1.875000000000E+002   1.875000000000E+002   1.875000000000E+002   1.875000000000E+002   1.875000000000E+002 
  1.875000000000E+002   1.875000000000E+002   1.875000000000E+002   1.875000000000E+002   1.875000000000E+002   1.875000000000E+002   1.875000000000E+002   1.875000000000E+002   1.875000000000E+002   1.875000000000E+002 
  1.875000000000E+002   1.875000000000E+002   1.875000000000E+002   1.875000000000E+002   1.875000000000E+002   1.875000000000E+002   1.875000000000E+002   1.875000000000E+002   1.875000000000E+002   1.875000000000E+002 
  1.875000000000E+002   1.875000000000E+002   1.875000000000E+002   1.875000000000E+002   1.875000000000E+002   1.875000000000E+002   1.875000000000E+002   1.875000000000E+002   1.875000000000E+002   1.875000000000E+002 
  1.875000000000E+002   1.875000000000E+002   1.875000000000E+002   1.875000000000E+002   1.875000000000E+002   1.875000000000E+002   1.875000000000E+002   1.875000000000E+002   1.875000000000E+002   1.875000000000E+002 
  1.875000000000E+002   1.875000000000E+002   1.875000000000E+002   1.875000000000E+002   1.875000000000E+002   1.875000000000E+002   1.875000000000E+002   1.875000000000E+002   1.875000000000E+002   1.875000000000E+002 
  1.875000000000E+002   1.875000000000E+002   1.875000000000E+002   1.875000000000E+002   1.875000000000E+002   1.875000000000E+002   1.875000000000E+002   1.875000000000E+002   1.875000000000E+002   1.875000000000E+002 
  1.875000000000E+002   1.875000000000E+002   1.875000000000E+002   1.875000000000E+002   1.875000000000E+002   1.875000000000E+002   1.875000000000E+002   1.875000000000E+002   1.875000000000E+002   1.875000000000E+002 
  1.875000000000E+002   1.875000000000E+002   1.875000000000E+002   1.875000000000E+002   1.875000000000E+002   1.875000000000E+002   1.875000000000E+002   1.875000000000E+002   1.875000000000E+002   1.875000000000E+002 
  1.875000000000E+002   1.875000000000E+002   1.875000000000E+002   1.875000000000E+002   1.875000000000E+002   1.875000000000E+002   1.875000000000E+002   1.875000000000E+002   1.875000000000E+002   1.875000000000E+002 
  1.875000000000E+002   1.875000000000E+002   1.875000000000E+002   1.875000000000E+002   1.875000000000E+002   1.875000000000E+002   1.875000000000E+002   1.875000000000E+002   1.875000000000E+002   1.875000000000E+002 
  1.875000000000E+002   1.875000000000E+002   1.875000000000E+002   1.875000000000E+002   1.875000000000E+002   1.875000000000E+002   1.875000000000E+002   1.875000000000E+002   1.875000000000E+002   1.875000000000E+002 
  1.875000000000E+002   1.875000000000E+002   1.875000000000E+002   1.875000000000E+002   1.875000000000E+002   1.875000000000E+002   1.875000000000E+002   1.875000000000E+002   1.875000000000E+002   1.875000000000E+002 
  1.875000000000E+002   1.875000000000E+002   1.875000000000E+002   1.875000000000E+002   1.875000000000E+002   1.875000000000E+002   1.875000000000E+002   1.875000000000E+002   1.875000000000E+002   1.875000000000E+002 
  1.875000000000E+002   1.875000000000E+002   1.875000000000E+002   1.875000000000E+002   9.375000000000E+001   9.375000000000E+001   9.375000000000E+001   9.375000000000E+001   9.375000000000E+001   9.375000000000E+001 
  9.375000000000E+001   9.375000000000E+001   9.375000000000E+001   9.375000000000E+001   9.375000000000E+001   9.375000000000E+001   9.375000000000E+001   9.375000000000E+001   1.875000000000E+002   9.375000000000E+001 
  9.375000000000E+001   1.875000000000E+002   1.875000000000E+002   9.375000000000E+001   9.375000000000E+001   9.375000000000E+001   9.375000000000E+001   9.375000000000E+001   9.375000000000E+001   1.875000000000E+002 
  1.875000000000E+002   1.875000000000E+002   1.875000000000E+002   1.875000000000E+002   1.875000000000E+002   9.375000000000E+001   9.375000000000E+001   9.375000000000E+001   9.375000000000E+001   9.375000000000E+001 
  9.375000000000E+001   9.375000000000E+001   9.375000000000E+001   1.875000000000E+002   1.875000000000E+002   1.875000000000E+002   1.875000000000E+002   1.875000000000E+002   1.875000000000E+002   1.875000000000E+002 
  1.875000000000E+002   1.875000000000E+002   1.875000000000E+002   1.875000000000E+002   1.875000000000E+002   1.875000000000E+002   1.875000000000E+002   1.875000000000E+002   1.875000000000E+002   1.875000000000E+002 
  1.875000000000E+002   1.875000000000E+002   1.875000000000E+002   3.750000000000E+002   3.750000000000E+002   3.750000000000E+002   3.750000000000E+002   3.750000000000E+002   3.750000000000E+002   7.500000000000E+002 
  7.500000000000E+002   7.500000000000E+002   7.500000000000E+002   7.500000000000E+002 
INTERNAL 1.0 (FREE)       12 # DELC
  5.000000000000E+002   5.000000000000E+002   5.000000000000E+002   5.000000000000E+002   5.000000000000E+002   5.000000000000E+002   5.000000000000E+002   5.000000000000E+002   5.000000000000E+002   5.000000000000E+002 
  5.000000000000E+002   2.500000000000E+002   2.500000000000E+002   2.500000000000E+002   2.500000000000E+002   2.500000000000E+002   2.500000000000E+002   2.500000000000E+002   2.500000000000E+002   2.500000000000E+002 
  2.500000000000E+002   2.500000000000E+002   2.500000000000E+002   2.500000000000E+002   2.500000000000E+002   2.500000000000E+002   2.500000000000E+002   1.250000000000E+002   1.250000000000E+002   1.250000000000E+002 
  1.250000000000E+002   1.250000000000E+002   9.169300000000E+001   1.583100000000E+002   1.250000000000E+002   1.250000000000E+002   1.250000000000E+002   1.250000000000E+002   1.250000000000E+002   1.250000000000E+002 
  1.250000000000E+002   1.250000000000E+002   1.250000000000E+002   2.500000000000E+002   2.500000000000E+002   2.500000000000E+002   2.500000000000E+002   2.500000000000E+002   2.500000000000E+002   2.500000000000E+002 
  2.500000000000E+002   2.500000000000E+002   2.500000000000E+002   2.500000000000E+002   2.500000000000E+002   2.500000000000E+002   2.500000000000E+002   2.500000000000E+002   2.500000000000E+002   2.500000000000E+002 
  3.431000000000E+002   1.569000000000E+002   2.500000000000E+002   2.500000000000E+002   2.500000000000E+002   2.500000000000E+002   2.500000000000E+002   2.500000000000E+002   2.500000000000E+002   2.500000000000E+002 
  2.500000000000E+002   2.500000000000E+002   2.500000000000E+002   2.500000000000E+002   2.500000000000E+002   2.500000000000E+002   2.500000000000E+002   2.500000000000E+002   2.500000000000E+002   2.500000000000E+002 
  1.250000000000E+002   1.250000000000E+002   1.059600000000E+002   1.440400000000E+002   1.250000000000E+002   1.250000000000E+002   1.250000000000E+002   1.250000000000E+002   1.250000000000E+002   1.250000000000E+002 
  1.250000000000E+002   1.250000000000E+002   1.250000000000E+002   1.250000000000E+002   1.250000000000E+002   1.250000000000E+002   1.250000000000E+002   1.250000000000E+002   1.250000000000E+002   1.250000000000E+002 
  2.500000000000E+002   2.500000000000E+002   2.500000000000E+002   2.500000000000E+002   2.500000000000E+002   2.500000000000E+002   2.500000000000E+002   2.500000000000E+002   2.500000000000E+002   5.000000000000E+002 
  5.000000000000E+002   5.000000000000E+002   5.000000000000E+002   5.000000000000E+002   5.000000000000E+002   5.000000000000E+002   5.000000000000E+002   5.000000000000E+002   5.000000000000E+002   5.000000000000E+002 
  5.000000000000E+002   5.000000000000E+002   5.000000000000E+002   5.000000000000E+002   5.000000000000E+002   5.000000000000E+002   5.000000000000E+002   5.000000000000E+002   5.000000000000E+002   5.000000000000E+002 
  5.000000000000E+002   5.000000000000E+002   5.000000000000E+002   5.000000000000E+002   5.000000000000E+002   5.000000000000E+002   5.000000000000E+002   5.000000000000E+002 
INTERNAL 1.0 (FREE)       12 # TOP
  8.810900000000E+000   1.095700000000E+001   4.631200000000E+001   3.495100000000E+001   2.516900000000E+001   2.407200000000E+001   2.368800000000E+001   2.652200000000E+001   4.280800000000E+001   4.251600000000E+001 
  4.348700000000E+001   3.945400000000E+001   3.293300000000E+001   3.400000000000E+001   3.712300000000E+001   4.898700000000E+001   5.004700000000E+001   5.035200000000E+001   5.151900000000E+001   5.223900000000E+001 
  5.267900000000E+001   9.973000000000E+001   2.187300000000E+002   2.184100000000E+002   2.190400000000E+002   2.241000000000E+002   2.299300000000E+002   2.351300000000E+002   2.404900000000E+002   2.564500000000E+002 
  2.644600000000E+002   2.694400000000E+002   2.750800000000E+002   2.805400000000E+002   2.855400000000E+002   2.927500000000E+002   3.009100000000E+002   3.057400000000E+002   3.105400000000E+002   3.153200000000E+002 
  3.194100000000E+002   3.177000000000E+002   3.225900000000E+002   3.278400000000E+002   3.327700000000E+002   3.373100000000E+002   3.530500000000E+002   3.745700000000E+002   5.055300000000E+002   5.000000000000E+002 
  5.000000000000E+002   5.000000000000E+002   5.000000000000E+002   5.000000000000E+002   5.000000000000E+002   5.000000000000E+002   5.000000000000E+002   5.000000000000E+002   5.000000000000E+002   5.000000000000E+002 
  5.000000000000E+002   5.000000000000E+002   5.000000000000E+002   5.000000000000E+002   5.000000000000E+002   5.000000000000E+002   5.000000000000E+002   5.000000000000E+002   5.000000000000E+002   5.000000000000E+002 
  5.000000000000E+002   5.000000000000E+002   5.000000000000E+002   5.000000000000E+002   5.000000000000E+002   5.000000000000E+002   5.000000000000E+002   5.000000000000E+002   5.000000000000E+002   5.000000000000E+002 
  5.000000000000E+002   5.000000000000E+002   5.000000000000E+002   5.000000000000E+002   5.000000000000E+002   5.000000000000E+002   5.000000000000E+002   5.000000000000E+002   5.000000000000E+002   5.000000000000E+002 
  5.000000000000E+002   5.000000000000E+002   5.000000000000E+002   5.000000000000E+002   5.000000000000E+002   5.000000000000E+002   5.000000000000E+002   5.000000000000E+002   5.000000000000E+002   5.000000000000E+002 
  5.000000000000E+002   5.000000000000E+002   5.000000000000E+002   5.000000000000E+002   5.000000000000E+002   5.000000000000E+002   5.000000000000E+002   5.000000000000E+002   5.000000000000E+002   5.299100000000E+002 
  5.470300000000E+002   5.474900000000E+002   5.484400000000E+002   5.491500000000E+002   5.495800000000E+002   5.506300000000E+002   5.516000000000E+002   5.525500000000E+002   5.540700000000E+002   5.552200000000E+002 
  5.560700000000E+002   5.572300000000E+002   5.609000000000E+002   5.625600000000E+002   5.647000000000E+002   5.667000000000E+002   5.688600000000E+002   5.709500000000E+002   5.722900000000E+002   5.766700000000E+002 
  5.798500000000E+002   5.811100000000E+002   5.822800000000E+002   5.864000000000E+002   5.941000000000E+002   6.135000000000E+002   6.117200000000E+002   5.945600000000E+002   5.969900000000E+002   6.000000000000E+002 
  6.000000000000E+002   6.000000000000E+002   6.000000000000E+002   6.000000000000E+002   6.000000000000E+002   6.000000000000E+002   6.000000000000E+002   6.000000000000E+002   6.000000000000E+002   6.000000000000E+002 
  6.000000000000E+002   6.000000000000E+002   6.000000000000E+002   6.000000000000E+002   6.000000000000E+002   6.000000000000E+002   6.000000000000E+002   6.000000000000E+002   6.000000000000E+002   6.000000000000E+002 
  6.000000000000E+002   6.000000000000E+002   6.000000000000E+002   6.000000000000E+002   6.000000000000E+002   6.000000000000E+002   6.000000000000E+002   6.000000000000E+002   6.000000000000E+002   6.000000000000E+002 
  6.000000000000E+002   6.000000000000E+002   6.000000000000E+002   6.000000000000E+002   6.000000000000E+002   6.000000000000E+002   6.000000000000E+002   6.000000000000E+002   6.000000000000E+002   6.000000000000E+002 
  6.000000000000E+002   6.000000000000E+002   6.000000000000E+002   6.000000000000E+002   6.000000000000E+002   6.000000000000E+002   6.000000000000E+002   6.000000000000E+002   6.000000000000E+002   6.000000000000E+002 
  6.000000000000E+002   6.000000000000E+002   6.000000000000E+002   6.000000000000E+002   6.000000000000E+002   6.000000000000E+002   6.000000000000E+002   6.000000000000E+002   6.000000000000E+002   6.000000000000E+002 
  6.000000000000E+002   6.000000000000E+002   6.000000000000E+002   6.000000000000E+002   6.000000000000E+002   6.000000000000E+002   6.000000000000E+002   6.000000000000E+002   6.000000000000E+002   6.000000000000E+002 
  6.000000000000E+002   6.000000000000E+002   6.000000000000E+002   6.000000000000E+002   6.000000000000E+002   6.000000000000E+002   6.000000000000E+002   6.000000000000E+002   6.000000000000E+002   6.000000000000E+002 
  6.000000000000E+002   6.000000000000E+002   6.076500000000E+002   6.406600000000E+002   6.440700000000E+002   6.452400000000E+002   6.468300000000E+002   6.404900000000E+002   6.394100000000E+002   6.420800000000E+002 
  6.432400000000E+002   6.444100000000E+002   6.455800000000E+002   6.470800000000E+002   6.482500000000E+002   6.492100000000E+002   6.486800000000E+002   6.471200000000E+002   6.511000000000E+002   6.522200000000E+002 
  6.529200000000E+002   6.535400000000E+002   6.544100000000E+002   6.552800000000E+002   6.557300000000E+002   6.562300000000E+002   6.566400000000E+002   6.569800000000E+002   6.573000000000E+002   6.585600000000E+002 
  6.593900000000E+002   6.704000000000E+002   6.893700000000E+002   7.000000000000E+002   7.000000000000E+002   7.000000000000E+002   7.000000000000E+002   7.000000000000E+002   7.000000000000E+002   7.000000000000E+002 
  7.000000000000E+002   7.000000000000E+002   7.000000000000E+002   7.000000000000E+002   7.000000000000E+002   7.000000000000E+002   7.000000000000E+002   7.000000000000E+002   7.000000000000E+002   7.000000000000E+002 
  7.000000000000E+002   7.000000000000E+002   7.000000000000E+002   7.000000000000E+002   7.000000000000E+002   7.000000000000E+002   7.000000000000E+002   7.000000000000E+002   7.000000000000E+002   7.000000000000E+002 
  7.000000000000E+002   7.000000000000E+002   7.000000000000E+002   7.000000000000E+002   7.000000000000E+002   7.000000000000E+002   7.000000000000E+002   7.000000000000E+002   7.000000000000E+002   7.000000000000E+002 
  7.000000000000E+002   7.000000000000E+002   7.000000000000E+002   7.000000000000E+002   7.000000000000E+002   7.000000000000E+002   7.000000000000E+002   7.000000000000E+002   7.000000000000E+002   7.000000000000E+002 
  7.000000000000E+002   7.375700000000E+002   7.354200000000E+002   7.374500000000E+002   7.402100000000E+002   7.430400000000E+002   7.458900000000E+002   7.487600000000E+002   7.516100000000E+002   7.555100000000E+002 
  8.029700000000E+002   8.110700000000E+002   8.037800000000E+002   8.061900000000E+002 
  8.122500000000E+000   9.366000000000E+000   4.706000000000E+001   3.512100000000E+001   2.520600000000E+001   2.409300000000E+001   2.363000000000E+001   2.418100000000E+001   2.601000000000E+001   3.746500000000E+001 
  4.272000000000E+001   3.950100000000E+001   3.319900000000E+001   3.359600000000E+001   3.663400000000E+001   4.698500000000E+001   4.948900000000E+001   4.990800000000E+001   5.071400000000E+001   5.226700000000E+001 
  5.288000000000E+001   9.815800000000E+001   2.118100000000E+002   2.099300000000E+002   2.141400000000E+002   2.195400000000E+002   2.251000000000E+002   2.308700000000E+002   2.441400000000E+002   2.515600000000E+002 
  2.572300000000E+002   2.658300000000E+002   2.730200000000E+002   2.815200000000E+002   2.901100000000E+002   2.961400000000E+002   3.016000000000E+002   3.070300000000E+002   3.124500000000E+002   3.178300000000E+002 
  3.225300000000E+002   3.217600000000E+002   3.274300000000E+002   3.329000000000E+002   3.383700000000E+002   3.434800000000E+002   3.594900000000E+002   5.094300000000E+002   5.055000000000E+002   5.000000000000E+002 
  5.000000000000E+002   5.000000000000E+002   5.000000000000E+002   5.000000000000E+002   5.000000000000E+002   5.000000000000E+002   5.000000000000E+002   5.000000000000E+002   5.000000000000E+002   5.000000000000E+002 
  5.000000000000E+002   5.000000000000E+002   5.000000000000E+002   5.000000000000E+002   5.000000000000E+002   5.000000000000E+002   5.000000000000E+002   5.000000000000E+002   5.000000000000E+002   5.000000000000E+002 
  5.000000000000E+002   5.000000000000E+002   5.000000000000E+002   5.000000000000E+002   5.000000000000E+002   5.000000000000E+002   5.000000000000E+002   5.000000000000E+002   5.000000000000E+002   5.000000000000E+002 
  5.000000000000E+002   5.000000000000E+002   5.000000000000E+002   5.000000000000E+002   5.000000000000E+002   5.000000000000E+002   5.000000000000E+002   5.000000000000E+002   5.000000000000E+002   5.000000000000E+002 
  5.000000000000E+002   5.000000000000E+002   5.000000000000E+002   5.000000000000E+002   5.000000000000E+002   5.000000000000E+002   5.000000000000E+002   5.000000000000E+002   5.000000000000E+002   5.000000000000E+002 
  5.000000000000E+002   5.000000000000E+002   5.000000000000E+002   5.000000000000E+002   5.000000000000E+002   5.000000000000E+002   5.000000000000E+002   5.000000000000E+002   5.000000000000E+002   5.140000000000E+002 
  5.458400000000E+002   5.465400000000E+002   5.477600000000E+002   5.481500000000E+002   5.493300000000E+002   5.494200000000E+002   5.507200000000E+002   5.515400000000E+002   5.529000000000E+002   5.542200000000E+002 
  5.554500000000E+002   5.563200000000E+002   5.594600000000E+002   5.612400000000E+002   5.634900000000E+002   5.657800000000E+002   5.679600000000E+002   5.704700000000E+002   5.734700000000E+002   5.763000000000E+002 
  5.789100000000E+002   5.808900000000E+002   5.821500000000E+002   5.863300000000E+002   5.940700000000E+002   6.134500000000E+002   6.117800000000E+002   5.947800000000E+002   6.000000000000E+002   6.000000000000E+002 
  6.000000000000E+002   6.000000000000E+002   6.000000000000E+002   6.000000000000E+002   6.000000000000E+002   6.000000000000E+002   6.000000000000E+002   6.000000000000E+002   6.000000000000E+002   6.000000000000E+002 
  6.000000000000E+002   6.000000000000E+002   6.000000000000E+002   6.000000000000E+002   6.000000000000E+002   6.000000000000E+002   6.000000000000E+002   6.000000000000E+002   6.000000000000E+002   6.000000000000E+002 
  6.000000000000E+002   6.000000000000E+002   6.000000000000E+002   6.000000000000E+002   6.000000000000E+002   6.000000000000E+002   6.000000000000E+002   6.000000000000E+002   6.000000000000E+002   6.000000000000E+002 
  6.000000000000E+002   6.000000000000E+002   6.000000000000E+002   6.000000000000E+002   6.000000000000E+002   6.000000000000E+002   6.000000000000E+002   6.000000000000E+002   6.000000000000E+002   6.000000000000E+002 
  6.000000000000E+002   6.000000000000E+002   6.000000000000E+002   6.000000000000E+002   6.000000000000E+002   6.000000000000E+002   6.000000000000E+002   6.000000000000E+002   6.000000000000E+002   6.000000000000E+002 
  6.000000000000E+002   6.000000000000E+002   6.000000000000E+002   6.000000000000E+002   6.000000000000E+002   6.000000000000E+002   6.000000000000E+002   6.000000000000E+002   6.000000000000E+002   6.000000000000E+002 
  6.000000000000E+002   6.000000000000E+002   6.000000000000E+002   6.000000000000E+002   6.000000000000E+002   6.000000000000E+002   6.000000000000E+002   6.000000000000E+002   6.000000000000E+002   6.000000000000E+002 
  6.000000000000E+002   6.000000000000E+002   6.000000000000E+002   6.000000000000E+002   6.000000000000E+002   6.000000000000E+002   6.000000000000E+002   6.000000000000E+002   6.000000000000E+002   6.000000000000E+002 
  6.000000000000E+002   6.000000000000E+002   6.075500000000E+002   6.407500000000E+002   6.440800000000E+002   6.448300000000E+002   6.467900000000E+002   6.403400000000E+002   6.378700000000E+002   6.420800000000E+002 
  6.433100000000E+002   6.445500000000E+002   6.461000000000E+002   6.473600000000E+002   6.486000000000E+002   6.496400000000E+002   6.491800000000E+002   6.484600000000E+002   6.485400000000E+002   6.525400000000E+002 
  6.534500000000E+002   6.543000000000E+002   6.552800000000E+002   6.559300000000E+002   6.566200000000E+002   6.569900000000E+002   6.573500000000E+002   6.578500000000E+002   6.582400000000E+002   6.721600000000E+002 
  6.916300000000E+002   7.000000000000E+002   7.000000000000E+002   7.000000000000E+002   7.000000000000E+002   7.000000000000E+002   7.000000000000E+002   7.000000000000E+002   7.000000000000E+002   7.000000000000E+002 
  7.000000000000E+002   7.000000000000E+002   7.000000000000E+002   7.000000000000E+002   7.000000000000E+002   7.000000000000E+002   7.000000000000E+002   7.000000000000E+002   7.000000000000E+002   7.000000000000E+002 
  7.000000000000E+002   7.000000000000E+002   7.000000000000E+002   7.000000000000E+002   7.000000000000E+002   7.000000000000E+002   7.000000000000E+002   7.000000000000E+002   7.000000000000E+002   7.000000000000E+002 
  7.000000000000E+002   7.000000000000E+002   7.000000000000E+002   7.000000000000E+002   7.000000000000E+002   7.000000000000E+002   7.000000000000E+002   7.000000000000E+002   7.000000000000E+002   7.000000000000E+002 
  7.000000000000E+002   7.000000000000E+002   7.000000000000E+002   7.000000000000E+002   7.000000000000E+002   7.000000000000E+002   7.000000000000E+002   7.000000000000E+002   7.000000000000E+002   7.000000000000E+002 
  7.000000000000E+002   7.366500000000E+002   7.346900000000E+002   7.368500000000E+002   7.398100000000E+002   7.428400000000E+002   7.459100000000E+002   7.489900000000E+002   7.520500000000E+002   7.562000000000E+002 
  8.029900000000E+002   8.113200000000E+002   8.039600000000E+002   8.064000000000E+002 
  6.184100000000E+000   8.589300000000E+000   4.912000000000E+001   2.351900000000E+001   2.513300000000E+001   2.421500000000E+001   2.369100000000E+001   2.411700000000E+001   2.431800000000E+001   2.546200000000E+001 
  3.687500000000E+001   3.869200000000E+001   3.268900000000E+001   3.321400000000E+001   3.624500000000E+001   4.528800000000E+001   4.869600000000E+001   4.935100000000E+001   5.044200000000E+001   5.167300000000E+001 
  5.313400000000E+001   9.604400000000E+001   2.034200000000E+002   2.020100000000E+002   2.080300000000E+002   2.142800000000E+002   2.203000000000E+002   2.343400000000E+002   2.412200000000E+002   2.474600000000E+002 
  2.537700000000E+002   2.622800000000E+002   2.713000000000E+002   2.807900000000E+002   2.889300000000E+002   2.951700000000E+002   3.015900000000E+002   3.082900000000E+002   3.148400000000E+002   3.209800000000E+002 
  3.264700000000E+002   3.268800000000E+002   3.335500000000E+002   3.396300000000E+002   3.450200000000E+002   3.508600000000E+002   3.671100000000E+002   5.086500000000E+002   5.091800000000E+002   5.000000000000E+002 
  5.000000000000E+002   5.000000000000E+002   5.000000000000E+002   5.000000000000E+002   5.000000000000E+002   5.000000000000E+002   5.000000000000E+002   5.000000000000E+002   5.000000000000E+002   5.000000000000E+002 
  5.000000000000E+002   5.000000000000E+002   5.000000000000E+002   5.000000000000E+002   5.000000000000E+002   5.000000000000E+002   5.000000000000E+002   5.000000000000E+002   5.000000000000E+002   5.000000000000E+002 
  5.000000000000E+002   5.000000000000E+002   5.000000000000E+002   5.000000000000E+002   5.000000000000E+002   5.000000000000E+002   5.000000000000E+002   5.000000000000E+002   5.000000000000E+002   5.000000000000E+002 
  5.000000000000E+002   5.000000000000E+002   5.000000000000E+002   5.000000000000E+002   5.000000000000E+002   5.000000000000E+002   5.000000000000E+002   5.000000000000E+002   5.000000000000E+002   5.000000000000E+002 
  5.000000000000E+002   5.000000000000E+002   5.000000000000E+002   5.000000000000E+002   5.000000000000E+002   5.000000000000E+002   5.000000000000E+002   5.000000000000E+002   5.000000000000E+002   5.000000000000E+002 
  5.000000000000E+002   5.000000000000E+002   5.000000000000E+002   5.000000000000E+002   5.000000000000E+002   5.000000000000E+002   5.000000000000E+002   5.000000000000E+002   5.000000000000E+002   5.000000000000E+002 
  5.263700000000E+002   5.453900000000E+002   5.461400000000E+002   5.473900000000E+002   5.478200000000E+002   5.490800000000E+002   5.492000000000E+002   5.505600000000E+002   5.516100000000E+002   5.529400000000E+002 
  5.543300000000E+002   5.553800000000E+002   5.566900000000E+002   5.605900000000E+002   5.621100000000E+002   5.642600000000E+002   5.673800000000E+002   5.689000000000E+002   5.745600000000E+002   5.759100000000E+002 
  5.785700000000E+002   5.806500000000E+002   5.819900000000E+002   5.862500000000E+002   5.940400000000E+002   6.133900000000E+002   6.118400000000E+002   5.950300000000E+002   6.000000000000E+002   6.000000000000E+002 
  6.000000000000E+002   6.000000000000E+002   6.000000000000E+002   6.000000000000E+002   6.000000000000E+002   6.000000000000E+002   6.000000000000E+002   6.000000000000E+002   6.000000000000E+002   6.000000000000E+002 
  6.000000000000E+002   6.000000000000E+002   6.000000000000E+002   6.000000000000E+002   6.000000000000E+002   6.000000000000E+002   6.000000000000E+002   6.000000000000E+002   6.000000000000E+002   6.000000000000E+002 
  6.000000000000E+002   6.000000000000E+002   6.000000000000E+002   6.000000000000E+002   6.000000000000E+002   6.000000000000E+002   6.000000000000E+002   6.000000000000E+002   6.000000000000E+002   6.000000000000E+002 
  6.000000000000E+002   6.000000000000E+002   6.000000000000E+002   6.000000000000E+002   6.000000000000E+002   6.000000000000E+002   6.000000000000E+002   6.000000000000E+002   6.000000000000E+002   6.000000000000E+002 
  6.000000000000E+002   6.000000000000E+002   6.000000000000E+002   6.000000000000E+002   6.000000000000E+002   6.000000000000E+002   6.000000000000E+002   6.000000000000E+002   6.000000000000E+002   6.000000000000E+002 
  6.000000000000E+002   6.000000000000E+002   6.000000000000E+002   6.000000000000E+002   6.000000000000E+002   6.000000000000E+002   6.000000000000E+002   6.000000000000E+002   6.000000000000E+002   6.000000000000E+002 
  6.000000000000E+002   6.000000000000E+002   6.000000000000E+002   6.000000000000E+002   6.000000000000E+002   6.000000000000E+002   6.000000000000E+002   6.000000000000E+002   6.000000000000E+002   6.000000000000E+002 
  6.000000000000E+002   6.000000000000E+002   6.000000000000E+002   6.000000000000E+002   6.000000000000E+002   6.000000000000E+002   6.000000000000E+002   6.000000000000E+002   6.000000000000E+002   6.000000000000E+002 
  6.000000000000E+002   6.000000000000E+002   6.075400000000E+002   6.402300000000E+002   6.435700000000E+002   6.444700000000E+002   6.465400000000E+002   6.402800000000E+002   6.355700000000E+002   6.420800000000E+002 
  6.434000000000E+002   6.448900000000E+002   6.463600000000E+002   6.476900000000E+002   6.490100000000E+002   6.501100000000E+002   6.497000000000E+002   6.496600000000E+002   6.492600000000E+002   6.533400000000E+002 
  6.540800000000E+002   6.551400000000E+002   6.558600000000E+002   6.569000000000E+002   6.574100000000E+002   6.579500000000E+002   6.583700000000E+002   6.909100000000E+002   7.000000000000E+002   7.000000000000E+002 