# OC package for MODFLOW-NWT generated by Flopy 3.3.6
HEAD PRINT FORMAT   0
HEAD SAVE UNIT    51
DRAWDOWN PRINT FORMAT   0
COMPACT BUDGET AUX

period 1 step 1 
  save head
  print budget

period 1 step 2 
  save head
  print budget

period 1 step 3 
  save head
  print budget

period 1 step 4 
  save head
  print budget

period 1 step 5 
  save head
  print budget

period 1 step 6 
  save head
  print budget

period 1 step 7 
  save head
  print budget

period 1 step 8 
  save head
  print budget

period 1 step 9 
  save head
  print budget

period 1 step 10 
  save head
  print budget

period 1 step 11 
  save head
  print budget

period 1 step 12 
  save head
  print budget

period 2 step 1 
  save head
  print budget

period 2 step 2 
  save head
  print budget

period 2 step 3 
  save head
  print budget

period 2 step 4 
  save head
  print budget

period 2 step 5 
  save head
  print budget

period 2 step 6 
  save head
  print budget

period 2 step 7 
  save head
  print budget

period 2 step 8 
  save head
  print budget

period 2 step 9 
  save head
  print budget

period 2 step 10 
  save head
  print budget

period 2 step 11 
  save head
  print budget

period 2 step 12 
  save head
  print budget

period 3 step 1 
  save head
  print budget

period 3 step 2 
  save head
  print budget

period 3 step 3 
  save head
  print budget

period 3 step 4 
  save head
  print budget

period 3 step 5 
  save head
  print budget

period 3 step 6 
  save head
  print budget

period 3 step 7 
  save head
  print budget

period 3 step 8 
  save head
  print budget

period 3 step 9 
  save head
  print budget

period 3 step 10 
  save head
  print budget

period 3 step 11 
  save head
  print budget

period 3 step 12 
  save head
  print budget

period 4 step 1 
  save head
  print budget

period 4 step 2 
  save head
  print budget

period 4 step 3 
  save head
  print budget

period 4 step 4 
  save head
  print budget

period 4 step 5 
  save head
  print budget

period 4 step 6 
  save head
  print budget

period 4 step 7 
  save head
  print budget

period 4 step 8 
  save head
  print budget

period 4 step 9 
  save head
  print budget

period 4 step 10 
  save head
  print budget

period 4 step 11 
  save head
  print budget

period 4 step 12 
  save head
  print budget

period 5 step 1 
  save head
  print budget

period 5 step 2 
  save head
  print budget

period 5 step 3 
  save head
  print budget

period 5 step 4 
  save head
  print budget

period 5 step 5 
  save head
  print budget

period 5 step 6 
  save head
  print budget

period 5 step 7 
  save head
  print budget

period 5 step 8 
  save head
  print budget

period 5 step 9 
  save head
  print budget

period 5 step 10 
  save head
  print budget

period 5 step 11 
  save head
  print budget

period 5 step 12 
  save head
  print budget

period 6 step 1 
  save head
  print budget

period 6 step 2 
  save head
  print budget

period 6 step 3 
  save head
  print budget

period 6 step 4 
  save head
  print budget

period 6 step 5 
  save head
  print budget

period 6 step 6 
  save head
  print budget

period 6 step 7 
  save head
  print budget

period 6 step 8 
  save head
  print budget

period 6 step 9 
  save head
  print budget

period 6 step 10 
  save head
  print budget

period 6 step 11 
  save head
  print budget

period 6 step 12 
  save head
  print budget

period 7 step 1 
  save head
  print budget

period 7 step 2 
  save head
  print budget

period 7 step 3 
  save head
  print budget

period 7 step 4 
  save head
  print budget

period 7 step 5 
  save head
  print budget

period 7 step 6 
  save head
  print budget

period 7 step 7 
  save head
  print budget

period 7 step 8 
  save head
  print budget

period 7 step 9 
  save head
  print budget

period 7 step 10 
  save head
  print budget

period 7 step 11 
  save head
  print budget

period 7 step 12 
  save head
  print budget

period 8 step 1 
  save head
  print budget

period 8 step 2 
  save head
  print budget

period 8 step 3 
  save head
  print budget

period 8 step 4 
  save head
  print budget

period 8 step 5 
  save head
  print budget

period 8 step 6 
  save head
  print budget

period 8 step 7 
  save head
  print budget

period 8 step 8 
  save head
  print budget

period 8 step 9 
  save head
  print budget

period 8 step 10 
  save head
  print budget

period 8 step 11 
  save head
  print budget

period 8 step 12 
  save head
  print budget

period 9 step 1 
  save head
  print budget

period 9 step 2 
  save head
  print budget

period 9 step 3 
  save head
  print budget

period 9 step 4 
  save head
  print budget

period 9 step 5 
  save head
  print budget

period 9 step 6 
  save head
  print budget

period 9 step 7 
  save head
  print budget

period 9 step 8 
  save head
  print budget

period 9 step 9 
  save head
  print budget

period 9 step 10 
  save head
  print budget

period 9 step 11 
  save head
  print budget

period 9 step 12 
  save head
  print budget

period 10 step 1 
  save head
  print budget

period 10 step 2 
  save head
  print budget

period 10 step 3 
  save head
  print budget

period 10 step 4 
  save head
  print budget

period 10 step 5 
  save head
  print budget

period 10 step 6 
  save head
  print budget

period 10 step 7 
  save head
  print budget

period 10 step 8 
  save head
  print budget

period 10 step 9 
  save head
  print budget

period 10 step 10 
  save head
  print budget

period 10 step 11 
  save head
  print budget

period 10 step 12 
  save head
  print budget

period 11 step 1 
  save head
  print budget

period 11 step 2 
  save head
  print budget

period 11 step 3 
  save head
  print budget

period 11 step 4 
  save head
  print budget

period 11 step 5 
  save head
  print budget

period 11 step 6 
  save head
  print budget

period 11 step 7 
  save head
  print budget

period 11 step 8 
  save head
  print budget

period 11 step 9 
  save head
  print budget

period 11 step 10 
  save head
  print budget

period 11 step 11 
  save head
  print budget

period 11 step 12 
  save head
  print budget

period 12 step 1 
  save head
  print budget

period 12 step 2 
  save head
  print budget

period 12 step 3 
  save head
  print budget

period 12 step 4 
  save head
  print budget

period 12 step 5 
  save head
  print budget

period 12 step 6 
  save head
  print budget

period 12 step 7 
  save head
  print budget

period 12 step 8 
  save head
  print budget

period 12 step 9 
  save head
  print budget

period 12 step 10 
  save head
  print budget

period 12 step 11 
  save head
  print budget

period 12 step 12 
  save head
  print budget

period 13 step 1 
  save head
  print budget

period 13 step 2 
  save head
  print budget

period 13 step 3 
  save head
  print budget

period 13 step 4 
  save head
  print budget

period 13 step 5 
  save head
  print budget

period 13 step 6 
  save head
  print budget

period 13 step 7 
  save head
  print budget

period 13 step 8 
  save head
  print budget

period 13 step 9 
  save head
  print budget

period 13 step 10 
  save head
  print budget

period 13 step 11 
  save head
  print budget

period 13 step 12 
  save head
  print budget

period 14 step 1 
  save head
  print budget

period 14 step 2 
  save head
  print budget

period 14 step 3 
  save head
  print budget

period 14 step 4 
  save head
  print budget

period 14 step 5 
  save head
  print budget

period 14 step 6 
  save head
  print budget

period 14 step 7 
  save head
  print budget

period 14 step 8 
  save head
  print budget

period 14 step 9 
  save head
  print budget

period 14 step 10 
  save head
  print budget

period 14 step 11 
  save head
  print budget

period 14 step 12 
  save head
  print budget

period 15 step 1 
  save head
  print budget

period 15 step 2 
  save head
  print budget

period 15 step 3 
  save head
  print budget

period 15 step 4 
  save head
  print budget

period 15 step 5 
  save head
  print budget

period 15 step 6 
  save head
  print budget

period 15 step 7 
  save head
  print budget

period 15 step 8 
  save head
  print budget

period 15 step 9 
  save head
  print budget

period 15 step 10 
  save head
  print budget

period 15 step 11 
  save head
  print budget

period 15 step 12 
  save head
  print budget

period 16 step 1 
  save head
  print budget

period 16 step 2 
  save head
  print budget

period 16 step 3 
  save head
  print budget

period 16 step 4 
  save head
  print budget

period 16 step 5 
  save head
  print budget

period 16 step 6 
  save head
  print budget

period 16 step 7 
  save head
  print budget

period 16 step 8 
  save head
  print budget

period 16 step 9 
  save head
  print budget

period 16 step 10 
  save head
  print budget

period 16 step 11 
  save head
  print budget

period 16 step 12 
  save head
  print budget

period 17 step 1 
  save head
  print budget

period 17 step 2 
  save head
  print budget

period 17 step 3 
  save head
  print budget

period 17 step 4 
  save head
  print budget

period 17 step 5 
  save head
  print budget

period 17 step 6 
  save head
  print budget

period 17 step 7 
  save head
  print budget

period 17 step 8 
  save head
  print budget

period 17 step 9 
  save head
  print budget

period 17 step 10 
  save head
  print budget

period 17 step 11 
  save head
  print budget

period 17 step 12 
  save head
  print budget

period 18 step 1 
  save head
  print budget

period 18 step 2 
  save head
  print budget

period 18 step 3 
  save head
  print budget

period 18 step 4 
  save head
  print budget

period 18 step 5 
  save head
  print budget

period 18 step 6 
  save head
  print budget

period 18 step 7 
  save head
  print budget

period 18 step 8 
  save head
  print budget

period 18 step 9 
  save head
  print budget

period 18 step 10 
  save head
  print budget

period 18 step 11 
  save head
  print budget

period 18 step 12 
  save head
  print budget

period 19 step 1 
  save head
  print budget

period 19 step 2 
  save head
  print budget

period 19 step 3 
  save head
  print budget

period 19 step 4 
  save head
  print budget

period 19 step 5 
  save head
  print budget

period 19 step 6 
  save head
  print budget

period 19 step 7 
  save head
  print budget

period 19 step 8 
  save head
  print budget

period 19 step 9 
  save head
  print budget

period 19 step 10 
  save head
  print budget

period 19 step 11 
  save head
  print budget

period 19 step 12 
  save head
  print budget

period 20 step 1 
  save head
  print budget

period 20 step 2 
  save head
  print budget

period 20 step 3 
  save head
  print budget

period 20 step 4 
  save head
  print budget

period 20 step 5 
  save head
  print budget

period 20 step 6 
  save head
  print budget

period 20 step 7 
  save head
  print budget

period 20 step 8 
  save head
  print budget

period 20 step 9 
  save head
  print budget

period 20 step 10 
  save head
  print budget

period 20 step 11 
  save head
  print budget

period 20 step 12 
  save head
  print budget

period 21 step 1 
  save head
  print budget

period 21 step 2 
  save head
  print budget

period 21 step 3 
  save head
  print budget

period 21 step 4 
  save head
  print budget

period 21 step 5 
  save head
  print budget

period 21 step 6 
  save head
  print budget

period 21 step 7 
  save head
  print budget

period 21 step 8 
  save head
  print budget

period 21 step 9 
  save head
  print budget

period 21 step 10 
  save head
  print budget

period 21 step 11 
  save head
  print budget

period 21 step 12 
  save head
  print budget

period 22 step 1 
  save head
  print budget

period 22 step 2 
  save head
  print budget

period 22 step 3 
  save head
  print budget

period 22 step 4 
  save head
  print budget

period 22 step 5 
  save head
  print budget

period 22 step 6 
  save head
  print budget

period 22 step 7 
  save head
  print budget

period 22 step 8 
  save head
  print budget

period 22 step 9 
  save head
  print budget

period 22 step 10 
  save head
  print budget

period 22 step 11 
  save head
  print budget

period 22 step 12 
  save head
  print budget

period 23 step 1 
  save head
  print budget

period 23 step 2 
  save head
  print budget

period 23 step 3 
  save head
  print budget

period 23 step 4 
  save head
  print budget

period 23 step 5 
  save head
  print budget

period 23 step 6 
  save head
  print budget

period 23 step 7 
  save head
  print budget

period 23 step 8 
  save head
  print budget

period 23 step 9 
  save head
  print budget

period 23 step 10 
  save head
  print budget

period 23 step 11 
  save head
  print budget

period 23 step 12 
  save head
  print budget

period 24 step 1 
  save head
  print budget

period 24 step 2 
  save head
  print budget

period 24 step 3 
  save head
  print budget

period 24 step 4 
  save head
  print budget

period 24 step 5 
  save head
  print budget

period 24 step 6 
  save head
  print budget

period 24 step 7 
  save head
  print budget

period 24 step 8 
  save head
  print budget

period 24 step 9 
  save head
  print budget

period 24 step 10 
  save head
  print budget

period 24 step 11 
  save head
  print budget

period 24 step 12 
  save head
  print budget

period 25 step 1 
  save head
  print budget

period 25 step 2 
  save head
  print budget

period 25 step 3 
  save head
  print budget

period 25 step 4 
  save head
  print budget

period 25 step 5 
  save head
  print budget

period 25 step 6 
  save head
  print budget

period 25 step 7 
  save head
  print budget

period 25 step 8 
  save head
  print budget

period 25 step 9 
  save head
  print budget

period 25 step 10 
  save head
  print budget

period 25 step 11 
  save head
  print budget

period 25 step 12 
  save head
  print budget

period 26 step 1 
  save head
  print budget

period 26 step 2 
  save head
  print budget

period 26 step 3 
  save head
  print budget

period 26 step 4 
  save head
  print budget

period 26 step 5 
  save head
  print budget

period 26 step 6 
  save head
  print budget

period 26 step 7 
  save head
  print budget

period 26 step 8 
  save head
  print budget

period 26 step 9 
  save head
  print budget

period 26 step 10 
  save head
  print budget

period 26 step 11 
  save head
  print budget

period 26 step 12 
  save head
  print budget

period 27 step 1 
  save head
  print budget

period 27 step 2 
  save head
  print budget

period 27 step 3 
  save head
  print budget

period 27 step 4 
  save head
  print budget

period 27 step 5 
  save head
  print budget

period 27 step 6 
  save head
  print budget

period 27 step 7 
  save head
  print budget

period 27 step 8 
  save head
  print budget

period 27 step 9 
  save head
  print budget

period 27 step 10 
  save head
  print budget

period 27 step 11 
  save head
  print budget

period 27 step 12 
  save head
  print budget

period 28 step 1 
  save head
  print budget

period 28 step 2 
  save head
  print budget

period 28 step 3 
  save head
  print budget

period 28 step 4 
  save head
  print budget

period 28 step 5 
  save head
  print budget

period 28 step 6 
  save head
  print budget

period 28 step 7 
  save head
  print budget

period 28 step 8 
  save head
  print budget

period 28 step 9 
  save head
  print budget

period 28 step 10 
  save head
  print budget

period 28 step 11 
  save head
  print budget

period 28 step 12 
  save head
  print budget

period 29 step 1 
  save head
  print budget

period 29 step 2 
  save head
  print budget

period 29 step 3 
  save head
  print budget

period 29 step 4 
  save head
  print budget

period 29 step 5 
  save head
  print budget

period 29 step 6 
  save head
  print budget

period 29 step 7 
  save head
  print budget

period 29 step 8 
  save head
  print budget

period 29 step 9 
  save head
  print budget

period 29 step 10 
  save head
  print budget

period 29 step 11 
  save head
  print budget

period 29 step 12 
  save head
  print budget

period 30 step 1 
  save head
  print budget

period 30 step 2 
  save head
  print budget

period 30 step 3 
  save head
  print budget

period 30 step 4 
  save head
  print budget

period 30 step 5 
  save head
  print budget

period 30 step 6 
  save head
  print budget

period 30 step 7 
  save head
  print budget

period 30 step 8 
  save head
  print budget

period 30 step 9 
  save head
  print budget

period 30 step 10 
  save head
  print budget

period 30 step 11 
  save head
  print budget

period 30 step 12 
  save head
  print budget

period 31 step 1 
  save head
  print budget

period 31 step 2 
  save head
  print budget

period 31 step 3 
  save head
  print budget

period 31 step 4 
  save head
  print budget

period 31 step 5 
  save head
  print budget

period 31 step 6 
  save head
  print budget

period 31 step 7 
  save head
  print budget

period 31 step 8 
  save head
  print budget

period 31 step 9 
  save head
  print budget

period 31 step 10 
  save head
  print budget

period 31 step 11 
  save head
  print budget

period 31 step 12 
  save head
  print budget

period 32 step 1 
  save head
  print budget

period 32 step 2 
  save head
  print budget

period 32 step 3 
  save head
  print budget

period 32 step 4 
  save head
  print budget

period 32 step 5 
  save head
  print budget

period 32 step 6 
  save head
  print budget

period 32 step 7 
  save head
  print budget

period 32 step 8 
  save head
  print budget

period 32 step 9 
  save head
  print budget

period 32 step 10 
  save head
  print budget

period 32 step 11 
  save head
  print budget

period 32 step 12 
  save head
  print budget

period 33 step 1 
  save head
  print budget

period 33 step 2 
  save head
  print budget

period 33 step 3 
  save head
  print budget

period 33 step 4 
  save head
  print budget

period 33 step 5 
  save head
  print budget

period 33 step 6 
  save head
  print budget

period 33 step 7 
  save head
  print budget

period 33 step 8 
  save head
  print budget

period 33 step 9 
  save head
  print budget

period 33 step 10 
  save head
  print budget

period 33 step 11 
  save head
  print budget

period 33 step 12 
  save head
  print budget

period 34 step 1 
  save head
  print budget

period 34 step 2 
  save head
  print budget

period 34 step 3 
  save head
  print budget

period 34 step 4 
  save head
  print budget

period 34 step 5 
  save head
  print budget

period 34 step 6 
  save head
  print budget

period 34 step 7 
  save head
  print budget

period 34 step 8 
  save head
  print budget

period 34 step 9 
  save head
  print budget

period 34 step 10 
  save head
  print budget

period 34 step 11 
  save head
  print budget

period 34 step 12 
  save head
  print budget

period 35 step 1 
  save head
  print budget

period 35 step 2 
  save head
  print budget

period 35 step 3 
  save head
  print budget

period 35 step 4 
  save head
  print budget

period 35 step 5 
  save head
  print budget

period 35 step 6 
  save head
  print budget

period 35 step 7 
  save head
  print budget

period 35 step 8 
  save head
  print budget

period 35 step 9 
  save head
  print budget

period 35 step 10 
  save head
  print budget

period 35 step 11 
  save head
  print budget

period 35 step 12 
  save head
  print budget

period 36 step 1 
  save head
  print budget

period 36 step 2 
  save head
  print budget

period 36 step 3 
  save head
  print budget

period 36 step 4 
  save head
  print budget

period 36 step 5 
  save head
  print budget

period 36 step 6 
  save head
  print budget

period 36 step 7 
  save head
  print budget

period 36 step 8 
  save head
  print budget

period 36 step 9 
  save head
  print budget

period 36 step 10 
  save head
  print budget

period 36 step 11 
  save head
  print budget

period 36 step 12 
  save head
  print budget

period 37 step 1 
  save head
  print budget

period 37 step 2 
  save head
  print budget

period 37 step 3 
  save head
  print budget

period 37 step 4 
  save head
  print budget

period 37 step 5 
  save head
  print budget

period 37 step 6 
  save head
  print budget

period 37 step 7 
  save head
  print budget

period 37 step 8 
  save head
  print budget

period 37 step 9 
  save head
  print budget

period 37 step 10 
  save head
  print budget

period 37 step 11 
  save head
  print budget

period 37 step 12 
  save head
  print budget

period 38 step 1 
  save head
  print budget

period 38 step 2 
  save head
  print budget

period 38 step 3 
  save head
  print budget

period 38 step 4 
  save head
  print budget

period 38 step 5 
  save head
  print budget

period 38 step 6 
  save head
  print budget

period 38 step 7 
  save head
  print budget

period 38 step 8 
  save head
  print budget

period 38 step 9 
  save head
  print budget

period 38 step 10 
  save head
  print budget

period 38 step 11 
  save head
  print budget

period 38 step 12 
  save head
  print budget

period 39 step 1 
  save head
  print budget

period 39 step 2 
  save head
  print budget

period 39 step 3 
  save head
  print budget

period 39 step 4 
  save head
  print budget

period 39 step 5 
  save head
  print budget

period 39 step 6 
  save head
  print budget

period 39 step 7 
  save head
  print budget

period 39 step 8 
  save head
  print budget

period 39 step 9 
  save head
  print budget

period 39 step 10 
  save head
  print budget

period 39 step 11 
  save head
  print budget

period 39 step 12 
  save head
  print budget

period 40 step 1 
  save head
  print budget

period 40 step 2 
  save head
  print budget

period 40 step 3 
  save head
  print budget

period 40 step 4 
  save head
  print budget

period 40 step 5 
  save head
  print budget

period 40 step 6 
  save head
  print budget

period 40 step 7 
  save head
  print budget

period 40 step 8 
  save head
  print budget

period 40 step 9 
  save head
  print budget

period 40 step 10 
  save head
  print budget

period 40 step 11 
  save head
  print budget

period 40 step 12 
  save head
  print budget

period 41 step 1 
  save head
  print budget

period 41 step 2 
  save head
  print budget

period 41 step 3 
  save head
  print budget

period 41 step 4 
  save head
  print budget

period 41 step 5 
  save head
  print budget

period 41 step 6 
  save head
  print budget

period 41 step 7 
  save head
  print budget

period 41 step 8 
  save head
  print budget

period 41 step 9 
  save head
  print budget

period 41 step 10 
  save head
  print budget

period 41 step 11 
  save head
  print budget

period 41 step 12 
  save head
  print budget

period 42 step 1 
  save head
  print budget

period 42 step 2 
  save head
  print budget

period 42 step 3 
  save head
  print budget

period 42 step 4 
  save head
  print budget

period 42 step 5 
  save head
  print budget

period 42 step 6 
  save head
  print budget

period 42 step 7 
  save head
  print budget

period 42 step 8 
  save head
  print budget

period 42 step 9 
  save head
  print budget

period 42 step 10 
  save head
  print budget

period 42 step 11 
  save head
  print budget

period 42 step 12 
  save head
  print budget

period 43 step 1 
  save head
  print budget

period 43 step 2 
  save head
  print budget

period 43 step 3 
  save head
  print budget

period 43 step 4 
  save head
  print budget

period 43 step 5 
  save head
  print budget

period 43 step 6 
  save head
  print budget

period 43 step 7 
  save head
  print budget

period 43 step 8 
  save head
  print budget

period 43 step 9 
  save head
  print budget

period 43 step 10 
  save head
  print budget

period 43 step 11 
  save head
  print budget

period 43 step 12 
  save head
  print budget

period 44 step 1 
  save head
  print budget

period 44 step 2 
  save head
  print budget

period 44 step 3 
  save head
  print budget

period 44 step 4 
  save head
  print budget

period 44 step 5 
  save head
  print budget

period 44 step 6 
  save head
  print budget

period 44 step 7 
  save head
  print budget

period 44 step 8 
  save head
  print budget

period 44 step 9 
  save head
  print budget

period 44 step 10 
  save head
  print budget

period 44 step 11 
  save head
  print budget

period 44 step 12 
  save head
  print budget

period 45 step 1 
  save head
  print budget

period 45 step 2 
  save head
  print budget

period 45 step 3 
  save head
  print budget

period 45 step 4 
  save head
  print budget

period 45 step 5 
  save head
  print budget

period 45 step 6 
  save head
  print budget

period 45 step 7 
  save head
  print budget

period 45 step 8 
  save head
  print budget

period 45 step 9 
  save head
  print budget

period 45 step 10 
  save head
  print budget

period 45 step 11 
  save head
  print budget

period 45 step 12 
  save head
  print budget

period 46 step 1 
  save head
  print budget

period 46 step 2 
  save head
  print budget

period 46 step 3 
  save head
  print budget

period 46 step 4 
  save head
  print budget

period 46 step 5 
  save head
  print budget

period 46 step 6 
  save head
  print budget

period 46 step 7 
  save head
  print budget

period 46 step 8 
  save head
  print budget

period 46 step 9 
  save head
  print budget

period 46 step 10 
  save head
  print budget

period 46 step 11 
  save head
  print budget

period 46 step 12 
  save head
  print budget

period 47 step 1 
  save head
  print budget

period 47 step 2 
  save head
  print budget

period 47 step 3 
  save head
  print budget

period 47 step 4 
  save head
  print budget

period 47 step 5 
  save head
  print budget

period 47 step 6 
  save head
  print budget

period 47 step 7 
  save head
  print budget

period 47 step 8 
  save head
  print budget

period 47 step 9 
  save head
  print budget

period 47 step 10 
  save head
  print budget

period 47 step 11 
  save head
  print budget

period 47 step 12 
  save head
  print budget

period 48 step 1 
  save head
  print budget

period 48 step 2 
  save head
  print budget

period 48 step 3 
  save head
  print budget

period 48 step 4 
  save head
  print budget

period 48 step 5 
  save head
  print budget

period 48 step 6 
  save head
  print budget

period 48 step 7 
  save head
  print budget

period 48 step 8 
  save head
  print budget

period 48 step 9 
  save head
  print budget

period 48 step 10 
  save head
  print budget

period 48 step 11 
  save head
  print budget

period 48 step 12 
  save head
  print budget

period 49 step 1 
  save head
  print budget

period 49 step 2 
  save head
  print budget

period 49 step 3 
  save head
  print budget

period 49 step 4 
  save head
  print budget

period 49 step 5 
  save head
  print budget

period 49 step 6 
  save head
  print budget

period 49 step 7 
  save head
  print budget

period 49 step 8 
  save head
  print budget

period 49 step 9 
  save head
  print budget

period 49 step 10 
  save head
  print budget

period 49 step 11 
  save head
  print budget

period 49 step 12 
  save head
  print budget

period 50 step 1 
  save head
  print budget

period 50 step 2 
  save head
  print budget

period 50 step 3 
  save head
  print budget

period 50 step 4 
  save head
  print budget

period 50 step 5 
  save head
  print budget

period 50 step 6 
  save head
  print budget

period 50 step 7 
  save head
  print budget

period 50 step 8 
  save head
  print budget

period 50 step 9 
  save head
  print budget

period 50 step 10 
  save head
  print budget

period 50 step 11 
  save head
  print budget

period 50 step 12 
  save head
  print budget

period 51 step 1 
  save head
  print budget

period 51 step 2 
  save head
  print budget

period 51 step 3 
  save head
  print budget

period 51 step 4 
  save head
  print budget

period 51 step 5 
  save head
  print budget

period 51 step 6 
  save head
  print budget

period 51 step 7 
  save head
  print budget

period 51 step 8 
  save head
  print budget

period 51 step 9 
  save head
  print budget

period 51 step 10 
  save head
  print budget

period 51 step 11 
  save head
  print budget

period 51 step 12 
  save head
  print budget

period 52 step 1 
  save head
  print budget

period 52 step 2 
  save head
  print budget

period 52 step 3 
  save head
  print budget

period 52 step 4 
  save head
  print budget

period 52 step 5 
  save head
  print budget

period 52 step 6 
  save head
  print budget

period 52 step 7 
  save head
  print budget

period 52 step 8 
  save head
  print budget

period 52 step 9 
  save head
  print budget

period 52 step 10 
  save head
  print budget

period 52 step 11 
  save head
  print budget

period 52 step 12 
  save head
  print budget

period 53 step 1 
  save head
  print budget

period 53 step 2 
  save head
  print budget

period 53 step 3 
  save head
  print budget

period 53 step 4 
  save head
  print budget

period 53 step 5 
  save head
  print budget

period 53 step 6 
  save head
  print budget

period 53 step 7 
  save head
  print budget

period 53 step 8 
  save head
  print budget

period 53 step 9 
  save head
  print budget

period 53 step 10 
  save head
  print budget

period 53 step 11 
  save head
  print budget

period 53 step 12 
  save head
  print budget

period 54 step 1 
  save head
  print budget

period 54 step 2 
  save head
  print budget

period 54 step 3 
  save head
  print budget

period 54 step 4 
  save head
  print budget

period 54 step 5 
  save head
  print budget

period 54 step 6 
  save head
  print budget

period 54 step 7 
  save head
  print budget

period 54 step 8 
  save head
  print budget

period 54 step 9 
  save head
  print budget

period 54 step 10 
  save head
  print budget

period 54 step 11 
  save head
  print budget

period 54 step 12 
  save head