# CHD package for MODFLOW-NWT generated by Flopy 3.3.6
        23
        23         0 # stress period 1
         1        32         5             0.0             0.0
         1        30         6             0.0             0.0
         1        31         6             0.0             0.0
         1        28         7             0.0             0.0
         1        29         7             0.0             0.0
         1        27         8             0.0             0.0
         1        25         9             0.0             0.0
         1        26         9             0.0             0.0
         1        23        10             0.0             0.0
         1        24        10             0.0             0.0
         1        21        11             0.0             0.0
         1        22        11             0.0             0.0
         1        18        12             0.0             0.0
         1        19        12             0.0             0.0
         1        20        12             0.0             0.0
         1        11        13             0.0             0.0
         1        12        13             0.0             0.0
         1        13        13             0.0             0.0
         1        14        13             0.0             0.0
         1        15        13             0.0             0.0
         1        16        13             0.0             0.0
         1       108       292           420.0           420.0
         1       108       293           420.0           420.0
        23         0 # stress period 2
         1        32         5             0.0             0.0
         1        30         6             0.0             0.0
         1        31         6             0.0             0.0
         1        28         7             0.0             0.0
         1        29         7             0.0             0.0
         1        27         8             0.0             0.0
         1        25         9             0.0             0.0
         1        26         9             0.0             0.0
         1        23        10             0.0             0.0
         1        24        10             0.0             0.0
         1        21        11             0.0             0.0
         1        22        11             0.0             0.0
         1        18        12             0.0             0.0
         1        19        12             0.0             0.0
         1        20        12             0.0             0.0
         1        11        13             0.0             0.0
         1        12        13             0.0             0.0
         1        13        13             0.0             0.0
         1        14        13             0.0             0.0
         1        15        13             0.0             0.0
         1        16        13             0.0             0.0
         1       108       292           420.0           420.0
         1       108       293           420.0           420.0
        23         0 # stress period 3
         1        32         5             0.0             0.0
         1        30         6             0.0             0.0
         1        31         6             0.0             0.0
         1        28         7             0.0             0.0
         1        29         7             0.0             0.0
         1        27         8             0.0             0.0
         1        25         9             0.0             0.0
         1        26         9             0.0             0.0
         1        23        10             0.0             0.0
         1        24        10             0.0             0.0
         1        21        11             0.0             0.0
         1        22        11             0.0             0.0
         1        18        12             0.0             0.0
         1        19        12             0.0             0.0
         1        20        12             0.0             0.0
         1        11        13             0.0             0.0
         1        12        13             0.0             0.0
         1        13        13             0.0             0.0
         1        14        13             0.0             0.0
         1        15        13             0.0             0.0
         1        16        13             0.0             0.0
         1       108       292           420.0           420.0
         1       108       293           420.0           420.0
        23         0 # stress period 4
         1        32         5             0.0             0.0
         1        30         6             0.0             0.0
         1        31         6             0.0             0.0
         1        28         7             0.0             0.0
         1        29         7             0.0             0.0
         1        27         8             0.0             0.0
         1        25         9             0.0             0.0
         1        26         9             0.0             0.0
         1        23        10             0.0             0.0
         1        24        10             0.0             0.0
         1        21        11             0.0             0.0
         1        22        11             0.0             0.0
         1        18        12             0.0             0.0
         1        19        12             0.0             0.0
         1        20        12             0.0             0.0
         1        11        13             0.0             0.0
         1        12        13             0.0             0.0
         1        13        13             0.0             0.0
         1        14        13             0.0             0.0
         1        15        13             0.0             0.0
         1        16        13             0.0             0.0
         1       108       292           420.0           420.0
         1       108       293           420.0           420.0
        23         0 # stress period 5
         1        32         5             0.0             0.0
         1        30         6             0.0             0.0
         1        31         6             0.0             0.0
         1        28         7             0.0             0.0
         1        29         7             0.0             0.0
         1        27         8             0.0             0.0
         1        25         9             0.0             0.0
         1        26         9             0.0             0.0
         1        23        10             0.0             0.0
         1        24        10             0.0             0.0
         1        21        11             0.0             0.0
         1        22        11             0.0             0.0
         1        18        12             0.0             0.0
         1        19        12             0.0             0.0
         1        20        12             0.0             0.0
         1        11        13             0.0             0.0
         1        12        13             0.0             0.0
         1        13        13             0.0             0.0
         1        14        13             0.0             0.0
         1        15        13             0.0             0.0
         1        16        13             0.0             0.0
         1       108       292           420.0           420.0
         1       108       293           420.0           420.0
        23         0 # stress period 6
         1        32         5             0.0             0.0
         1        30         6             0.0             0.0
         1        31         6             0.0             0.0
         1        28         7             0.0             0.0
         1        29         7             0.0             0.0
         1        27         8             0.0             0.0
         1        25         9             0.0             0.0
         1        26         9             0.0             0.0
         1        23        10             0.0             0.0
         1        24        10             0.0             0.0
         1        21        11             0.0             0.0
         1        22        11             0.0             0.0
         1        18        12             0.0             0.0
         1        19        12             0.0             0.0
         1        20        12             0.0             0.0
         1        11        13             0.0             0.0
         1        12        13             0.0             0.0
         1        13        13             0.0             0.0
         1        14        13             0.0             0.0
         1        15        13             0.0             0.0
         1        16        13             0.0             0.0
         1       108       292           420.0           420.0
         1       108       293           420.0           420.0
        23         0 # stress period 7
         1        32         5             0.0             0.0
         1        30         6             0.0             0.0
         1        31         6             0.0             0.0
         1        28         7             0.0             0.0
         1        29         7             0.0             0.0
         1        27         8             0.0             0.0
         1        25         9             0.0             0.0
         1        26         9             0.0             0.0
         1        23        10             0.0             0.0
         1        24        10             0.0             0.0
         1        21        11             0.0             0.0
         1        22        11             0.0             0.0
         1        18        12             0.0             0.0
         1        19        12             0.0             0.0
         1        20        12             0.0             0.0
         1        11        13             0.0             0.0
         1        12        13             0.0             0.0
         1        13        13             0.0             0.0
         1        14        13             0.0             0.0
         1        15        13             0.0             0.0
         1        16        13             0.0             0.0
         1       108       292           420.0           420.0
         1       108       293           420.0           420.0
        23         0 # stress period 8
         1        32         5             0.0             0.0
         1        30         6             0.0             0.0
         1        31         6             0.0             0.0
         1        28         7             0.0             0.0
         1        29         7             0.0             0.0
         1        27         8             0.0             0.0
         1        25         9             0.0             0.0
         1        26         9             0.0             0.0
         1        23        10             0.0             0.0
         1        24        10             0.0             0.0
         1        21        11             0.0             0.0
         1        22        11             0.0             0.0
         1        18        12             0.0             0.0
         1        19        12             0.0             0.0
         1        20        12             0.0             0.0
         1        11        13             0.0             0.0
         1        12        13             0.0             0.0
         1        13        13             0.0             0.0
         1        14        13             0.0             0.0
         1        15        13             0.0             0.0
         1        16        13             0.0             0.0
         1       108       292           420.0           420.0
         1       108       293           420.0           420.0
        23         0 # stress period 9
         1        32         5             0.0             0.0
         1        30         6             0.0             0.0
         1        31         6             0.0             0.0
         1        28         7             0.0             0.0
         1        29         7             0.0             0.0
         1        27         8             0.0             0.0
         1        25         9             0.0             0.0
         1        26         9             0.0             0.0
         1        23        10             0.0             0.0
         1        24        10             0.0             0.0
         1        21        11             0.0             0.0
         1        22        11             0.0             0.0
         1        18        12             0.0             0.0
         1        19        12             0.0             0.0
         1        20        12             0.0             0.0
         1        11        13             0.0             0.0
         1        12        13             0.0             0.0
         1        13        13             0.0             0.0
         1        14        13             0.0             0.0
         1        15        13             0.0             0.0
         1        16        13             0.0             0.0
         1       108       292           420.0           420.0
         1       108       293           420.0           420.0
        23         0 # stress period 10
         1        32         5             0.0             0.0
         1        30         6             0.0             0.0
         1        31         6             0.0             0.0
         1        28         7             0.0             0.0
         1        29         7             0.0             0.0
         1        27         8             0.0             0.0
         1        25         9             0.0             0.0
         1        26         9             0.0             0.0
         1        23        10             0.0             0.0
         1        24        10             0.0             0.0
         1        21        11             0.0             0.0
         1        22        11             0.0             0.0
         1        18        12             0.0             0.0
         1        19        12             0.0             0.0
         1        20        12             0.0             0.0
         1        11        13             0.0             0.0
         1        12        13             0.0             0.0
         1        13        13             0.0             0.0
         1        14        13             0.0             0.0
         1        15        13             0.0             0.0
         1        16        13             0.0             0.0
         1       108       292           420.0           420.0
         1       108       293           420.0           420.0
        23         0 # stress period 11
         1        32         5             0.0             0.0
         1        30         6             0.0             0.0
         1        31         6             0.0             0.0
         1        28         7             0.0             0.0
         1        29         7             0.0             0.0
         1        27         8             0.0             0.0
         1        25         9             0.0             0.0
         1        26         9             0.0             0.0
         1        23        10             0.0             0.0
         1        24        10             0.0             0.0
         1        21        11             0.0             0.0
         1        22        11             0.0             0.0
         1        18        12             0.0             0.0
         1        19        12             0.0             0.0
         1        20        12             0.0             0.0
         1        11        13             0.0             0.0
         1        12        13             0.0             0.0
         1        13        13             0.0             0.0
         1        14        13             0.0             0.0
         1        15        13             0.0             0.0
         1        16        13             0.0             0.0
         1       108       292           420.0           420.0
         1       108       293           420.0           420.0
        23         0 # stress period 12
         1        32         5             0.0             0.0
         1        30         6             0.0             0.0
         1        31         6             0.0             0.0
         1        28         7             0.0             0.0
         1        29         7             0.0             0.0
         1        27         8             0.0             0.0
         1        25         9             0.0             0.0
         1        26         9             0.0             0.0
         1        23        10             0.0             0.0
         1        24        10             0.0             0.0
         1        21        11             0.0             0.0
         1        22        11             0.0             0.0
         1        18        12             0.0             0.0
         1        19        12             0.0             0.0
         1        20        12             0.0             0.0
         1        11        13             0.0             0.0
         1        12        13             0.0             0.0
         1        13        13             0.0             0.0
         1        14        13             0.0             0.0
         1        15        13             0.0             0.0
         1        16        13             0.0             0.0
         1       108       292           420.0           420.0
         1       108       293           420.0           420.0
        23         0 # stress period 13
         1        32         5             0.0             0.0
         1        30         6             0.0             0.0
         1        31         6             0.0             0.0
         1        28         7             0.0             0.0
         1        29         7             0.0             0.0
         1        27         8             0.0             0.0
         1        25         9             0.0             0.0
         1        26         9             0.0             0.0
         1        23        10             0.0             0.0
         1        24        10             0.0             0.0
         1        21        11             0.0             0.0
         1        22        11             0.0             0.0
         1        18        12             0.0             0.0
         1        19        12             0.0             0.0
         1        20        12             0.0             0.0
         1        11        13             0.0             0.0
         1        12        13             0.0             0.0
         1        13        13             0.0             0.0
         1        14        13             0.0             0.0
         1        15        13             0.0             0.0
         1        16        13             0.0             0.0
         1       108       292           420.0           420.0
         1       108       293           420.0           420.0
        23         0 # stress period 14
         1        32         5             0.0             0.0
         1        30         6             0.0             0.0
         1        31         6             0.0             0.0
         1        28         7             0.0             0.0
         1        29         7             0.0             0.0
         1        27         8             0.0             0.0
         1        25         9             0.0             0.0
         1        26         9             0.0             0.0
         1        23        10             0.0             0.0
         1        24        10             0.0             0.0
         1        21        11             0.0             0.0
         1        22        11             0.0             0.0
         1        18        12             0.0             0.0
         1        19        12             0.0             0.0
         1        20        12             0.0             0.0
         1        11        13             0.0             0.0
         1        12        13             0.0             0.0
         1        13        13             0.0             0.0
         1        14        13             0.0             0.0
         1        15        13             0.0             0.0
         1        16        13             0.0             0.0
         1       108       292           420.0           420.0
         1       108       293           420.0           420.0
        23         0 # stress period 15
         1        32         5             0.0             0.0
         1        30         6             0.0             0.0
         1        31         6             0.0             0.0
         1        28         7             0.0             0.0
         1        29         7             0.0             0.0
         1        27         8             0.0             0.0
         1        25         9             0.0             0.0
         1        26         9             0.0             0.0
         1        23        10             0.0             0.0
         1        24        10             0.0             0.0
         1        21        11             0.0             0.0
         1        22        11             0.0             0.0
         1        18        12             0.0             0.0
         1        19        12             0.0             0.0
         1        20        12             0.0             0.0
         1        11        13             0.0             0.0
         1        12        13             0.0             0.0
         1        13        13             0.0             0.0
         1        14        13             0.0             0.0
         1        15        13             0.0             0.0
         1        16        13             0.0             0.0
         1       108       292           420.0           420.0
         1       108       293           420.0           420.0
        23         0 # stress period 16
         1        32         5             0.0             0.0
         1        30         6             0.0             0.0
         1        31         6             0.0             0.0
         1        28         7             0.0             0.0
         1        29         7             0.0             0.0
         1        27         8             0.0             0.0
         1        25         9             0.0             0.0
         1        26         9             0.0             0.0
         1        23        10             0.0             0.0
         1        24        10             0.0             0.0
         1        21        11             0.0             0.0
         1        22        11             0.0             0.0
         1        18        12             0.0             0.0
         1        19        12             0.0             0.0
         1        20        12             0.0             0.0
         1        11        13             0.0             0.0
         1        12        13             0.0             0.0
         1        13        13             0.0             0.0
         1        14        13             0.0             0.0
         1        15        13             0.0             0.0
         1        16        13             0.0             0.0
         1       108       292           420.0           420.0
         1       108       293           420.0           420.0
        23         0 # stress period 17
         1        32         5             0.0             0.0
         1        30         6             0.0             0.0
         1        31         6             0.0             0.0
         1        28         7             0.0             0.0
         1        29         7             0.0             0.0
         1        27         8             0.0             0.0
         1        25         9             0.0             0.0
         1        26         9             0.0             0.0
         1        23        10             0.0             0.0
         1        24        10             0.0             0.0
         1        21        11             0.0             0.0
         1        22        11             0.0             0.0
         1        18        12             0.0             0.0
         1        19        12             0.0             0.0
         1        20        12             0.0             0.0
         1        11        13             0.0             0.0
         1        12        13             0.0             0.0
         1        13        13             0.0             0.0
         1        14        13             0.0             0.0
         1        15        13             0.0             0.0
         1        16        13             0.0             0.0
         1       108       292           420.0           420.0
         1       108       293           420.0           420.0
        23         0 # stress period 18
         1        32         5             0.0             0.0
         1        30         6             0.0             0.0
         1        31         6             0.0             0.0
         1        28         7             0.0             0.0
         1        29         7             0.0             0.0
         1        27         8             0.0             0.0
         1        25         9             0.0             0.0
         1        26         9             0.0             0.0
         1        23        10             0.0             0.0
         1        24        10             0.0             0.0
         1        21        11             0.0             0.0
         1        22        11             0.0             0.0
         1        18        12             0.0             0.0
         1        19        12             0.0             0.0
         1        20        12             0.0             0.0
         1        11        13             0.0             0.0
         1        12        13             0.0             0.0
         1        13        13             0.0             0.0
         1        14        13             0.0             0.0
         1        15        13             0.0             0.0
         1        16        13             0.0             0.0
         1       108       292           420.0           420.0
         1       108       293           420.0           420.0
        23         0 # stress period 19
         1        32         5             0.0             0.0
         1        30         6             0.0             0.0
         1        31         6             0.0             0.0
         1        28         7             0.0             0.0
         1        29         7             0.0             0.0
         1        27         8             0.0             0.0
         1        25         9             0.0             0.0
         1        26         9             0.0             0.0
         1        23        10             0.0             0.0
         1        24        10             0.0             0.0
         1        21        11             0.0             0.0
         1        22        11             0.0             0.0
         1        18        12             0.0             0.0
         1        19        12             0.0             0.0
         1        20        12             0.0             0.0
         1        11        13             0.0             0.0
         1        12        13             0.0             0.0
         1        13        13             0.0             0.0
         1        14        13             0.0             0.0
         1        15        13             0.0             0.0
         1        16        13             0.0             0.0
         1       108       292           420.0           420.0
         1       108       293           420.0           420.0
        23         0 # stress period 20
         1        32         5             0.0             0.0
         1        30         6             0.0             0.0
         1        31         6             0.0             0.0
         1        28         7             0.0             0.0
         1        29         7             0.0             0.0
         1        27         8             0.0             0.0
         1        25         9             0.0             0.0
         1        26         9             0.0             0.0
         1        23        10             0.0             0.0
         1        24        10             0.0             0.0
         1        21        11             0.0             0.0
         1        22        11             0.0             0.0
         1        18        12             0.0             0.0
         1        19        12             0.0             0.0
         1        20        12             0.0             0.0
         1        11        13             0.0             0.0
         1        12        13             0.0             0.0
         1        13        13             0.0             0.0
         1        14        13             0.0             0.0
         1        15        13             0.0             0.0
         1        16        13             0.0             0.0
         1       108       292           420.0           420.0
         1       108       293           420.0           420.0
        23         0 # stress period 21
         1        32         5             0.0             0.0