# DIS package for MODFLOW-NWT generated by Flopy 3.3.6
         2       138       314       336         4         2
  0  0
INTERNAL               1     (FREE) 12 #delr                          
   7.500000E+02   7.500000E+02   7.500000E+02   7.500000E+02   3.750000E+02   1.875000E+02   1.875000E+02   1.875000E+02   1.875000E+02   1.875000E+02   1.875000E+02   1.875000E+02   1.875000E+02   1.875000E+02   1.875000E+02   1.875000E+02   1.875000E+02   1.875000E+02   1.875000E+02   1.875000E+02   9.375000E+01   9.375000E+01   9.375000E+01   9.375000E+01   9.375000E+01   9.375000E+01   9.375000E+01   9.375000E+01   9.375000E+01   9.375000E+01   9.375000E+01   9.375000E+01   9.375000E+01   9.375000E+01   9.375000E+01   9.375000E+01   9.375000E+01   9.375000E+01   9.375000E+01   9.375000E+01   9.375000E+01   9.375000E+01   9.375000E+01   9.375000E+01   9.375000E+01   9.375000E+01   1.875000E+02   1.875000E+02   1.875000E+02   1.875000E+02   1.875000E+02   1.875000E+02   1.875000E+02   1.875000E+02   1.875000E+02   1.875000E+02   1.875000E+02   1.875000E+02   1.875000E+02   1.875000E+02   1.875000E+02   1.875000E+02   1.875000E+02   1.875000E+02   1.875000E+02   1.875000E+02   1.875000E+02   1.875000E+02   1.875000E+02   1.875000E+02   1.875000E+02   1.875000E+02   1.875000E+02   1.875000E+02   1.875000E+02   1.875000E+02   1.875000E+02   1.875000E+02   1.875000E+02   1.875000E+02   1.875000E+02   1.875000E+02   1.875000E+02   1.875000E+02   1.875000E+02   1.875000E+02   1.875000E+02   1.875000E+02   1.875000E+02   1.875000E+02   1.875000E+02   1.875000E+02   1.875000E+02   1.875000E+02   1.875000E+02   1.875000E+02   1.875000E+02   1.875000E+02   1.875000E+02   1.875000E+02   1.875000E+02   1.875000E+02   1.875000E+02   1.875000E+02   1.875000E+02   1.875000E+02   1.875000E+02   1.875000E+02   1.875000E+02   1.875000E+02   1.875000E+02   1.875000E+02   1.875000E+02   1.875000E+02   1.875000E+02   1.875000E+02   1.875000E+02   1.875000E+02   1.875000E+02   1.875000E+02   1.875000E+02   1.875000E+02   1.875000E+02   1.875000E+02   1.875000E+02   1.875000E+02   1.875000E+02   1.875000E+02   1.875000E+02   1.875000E+02   1.875000E+02   1.875000E+02   1.875000E+02   1.875000E+02   1.875000E+02   1.875000E+02   1.875000E+02   1.875000E+02   1.875000E+02   1.875000E+02   1.875000E+02   1.875000E+02   1.875000E+02   1.875000E+02   1.875000E+02   1.875000E+02   1.875000E+02   1.875000E+02   1.875000E+02   1.875000E+02   1.875000E+02   1.875000E+02   1.875000E+02   1.875000E+02   1.875000E+02   1.875000E+02   1.875000E+02   1.875000E+02   1.875000E+02   1.875000E+02   1.875000E+02   1.875000E+02   1.875000E+02   1.875000E+02   1.875000E+02   1.875000E+02   1.875000E+02   1.875000E+02   1.875000E+02   1.875000E+02   1.875000E+02   1.875000E+02   1.875000E+02   1.875000E+02   1.875000E+02   1.875000E+02   1.875000E+02   1.875000E+02   1.875000E+02   1.875000E+02   1.875000E+02   1.875000E+02   1.875000E+02   1.875000E+02   1.875000E+02   1.875000E+02   1.875000E+02   1.875000E+02   1.875000E+02   1.875000E+02   1.875000E+02   1.875000E+02   1.875000E+02   1.875000E+02   1.875000E+02   1.875000E+02   1.875000E+02   1.875000E+02   1.875000E+02   1.875000E+02   1.875000E+02   1.875000E+02   1.875000E+02   1.875000E+02   1.875000E+02   1.875000E+02   1.875000E+02   1.875000E+02   1.875000E+02   1.875000E+02   1.875000E+02   1.875000E+02   1.875000E+02   1.875000E+02   1.875000E+02   1.875000E+02   1.875000E+02   1.875000E+02   1.875000E+02   1.875000E+02   1.875000E+02   1.875000E+02   1.875000E+02   1.875000E+02   1.875000E+02   1.875000E+02   1.875000E+02   1.875000E+02   1.875000E+02   1.875000E+02   1.875000E+02   1.875000E+02   1.875000E+02   1.875000E+02   1.875000E+02   1.875000E+02   1.875000E+02   1.875000E+02   1.875000E+02   1.875000E+02   1.875000E+02   1.875000E+02   1.875000E+02   1.875000E+02   9.375000E+01   9.375000E+01   9.375000E+01   9.375000E+01   9.375000E+01   9.375000E+01   9.375000E+01   9.375000E+01   9.375000E+01   9.375000E+01   9.375000E+01   9.375000E+01   9.375000E+01   9.375000E+01   1.875000E+02   9.375000E+01   9.375000E+01   1.875000E+02   1.875000E+02   9.375000E+01   9.375000E+01   9.375000E+01   9.375000E+01   9.375000E+01   9.375000E+01   1.875000E+02   1.875000E+02   1.875000E+02   1.875000E+02   1.875000E+02   1.875000E+02   9.375000E+01   9.375000E+01   9.375000E+01   9.375000E+01   9.375000E+01   9.375000E+01   9.375000E+01   9.375000E+01   1.875000E+02   1.875000E+02   1.875000E+02   1.875000E+02   1.875000E+02   1.875000E+02   1.875000E+02   1.875000E+02   1.875000E+02   1.875000E+02   1.875000E+02   1.875000E+02   1.875000E+02   1.875000E+02   1.875000E+02   1.875000E+02   1.875000E+02   1.875000E+02   1.875000E+02   1.875000E+02   3.750000E+02   3.750000E+02   3.750000E+02   3.750000E+02   3.750000E+02   3.750000E+02   7.500000E+02   7.500000E+02   7.500000E+02   7.500000E+02   7.500000E+02
INTERNAL               1     (FREE) 12 #delc                          
   5.000000E+02   5.000000E+02   5.000000E+02   5.000000E+02   5.000000E+02   5.000000E+02   5.000000E+02   5.000000E+02   5.000000E+02   5.000000E+02   5.000000E+02   2.500000E+02   2.500000E+02   2.500000E+02   2.500000E+02   2.500000E+02   2.500000E+02   2.500000E+02   2.500000E+02   2.500000E+02   2.500000E+02   2.500000E+02   2.500000E+02   2.500000E+02   2.500000E+02   2.500000E+02   2.500000E+02   1.250000E+02   1.250000E+02   1.250000E+02   1.250000E+02   1.250000E+02   9.169300E+01   1.583100E+02   1.250000E+02   1.250000E+02   1.250000E+02   1.250000E+02   1.250000E+02   1.250000E+02   1.250000E+02   1.250000E+02   1.250000E+02   2.500000E+02   2.500000E+02   2.500000E+02   2.500000E+02   2.500000E+02   2.500000E+02   2.500000E+02   2.500000E+02   2.500000E+02   2.500000E+02   2.500000E+02   2.500000E+02   2.500000E+02   2.500000E+02   2.500000E+02   2.500000E+02   2.500000E+02   3.431000E+02   1.569000E+02   2.500000E+02   2.500000E+02   2.500000E+02   2.500000E+02   2.500000E+02   2.500000E+02   2.500000E+02   2.500000E+02   2.500000E+02   2.500000E+02   2.500000E+02   2.500000E+02   2.500000E+02   2.500000E+02   2.500000E+02   2.500000E+02   2.500000E+02   2.500000E+02   1.250000E+02   1.250000E+02   1.059600E+02   1.440400E+02   1.250000E+02   1.250000E+02   1.250000E+02   1.250000E+02   1.250000E+02   1.250000E+02   1.250000E+02   1.250000E+02   1.250000E+02   1.250000E+02   1.250000E+02   1.250000E+02   1.250000E+02   1.250000E+02   1.250000E+02   1.250000E+02   2.500000E+02   2.500000E+02   2.500000E+02   2.500000E+02   2.500000E+02   2.500000E+02   2.500000E+02   2.500000E+02   2.500000E+02   5.000000E+02   5.000000E+02   5.000000E+02   5.000000E+02   5.000000E+02   5.000000E+02   5.000000E+02   5.000000E+02   5.000000E+02   5.000000E+02   5.000000E+02   5.000000E+02   5.000000E+02   5.000000E+02   5.000000E+02   5.000000E+02   5.000000E+02   5.000000E+02   5.000000E+02   5.000000E+02   5.000000E+02   5.000000E+02   5.000000E+02   5.000000E+02   5.000000E+02   5.000000E+02   5.000000E+02   5.000000E+02   5.000000E+02
INTERNAL               1     (FREE) 12 #model_top                     
   8.810900E+00   1.095700E+01   4.631200E+01   3.495100E+01   2.516900E+01   2.407200E+01   2.368800E+01   2.652200E+01   4.280800E+01   4.251600E+01   4.348700E+01   3.945400E+01   3.293300E+01   3.400000E+01   3.712300E+01   4.898700E+01   5.004700E+01   5.035200E+01   5.151900E+01   5.223900E+01   5.267900E+01   9.973000E+01   2.187300E+02   2.184100E+02   2.190400E+02   2.241000E+02   2.299300E+02   2.351300E+02   2.404900E+02   2.564500E+02   2.644600E+02   2.694400E+02   2.750800E+02   2.805400E+02   2.855400E+02   2.927500E+02   3.009100E+02   3.057400E+02   3.105400E+02   3.153200E+02   3.194100E+02   3.177000E+02   3.225900E+02   3.278400E+02   3.327700E+02   3.373100E+02   3.530500E+02   3.745700E+02   5.055300E+02   5.000000E+02   5.000000E+02   5.000000E+02   5.000000E+02   5.000000E+02   5.000000E+02   5.000000E+02   5.000000E+02   5.000000E+02   5.000000E+02   5.000000E+02   5.000000E+02   5.000000E+02   5.000000E+02   5.000000E+02   5.000000E+02   5.000000E+02   5.000000E+02   5.000000E+02   5.000000E+02   5.000000E+02   5.000000E+02   5.000000E+02   5.000000E+02   5.000000E+02   5.000000E+02   5.000000E+02   5.000000E+02   5.000000E+02   5.000000E+02   5.000000E+02   5.000000E+02   5.000000E+02   5.000000E+02   5.000000E+02   5.000000E+02   5.000000E+02   5.000000E+02   5.000000E+02   5.000000E+02   5.000000E+02   5.000000E+02   5.000000E+02   5.000000E+02   5.000000E+02   5.000000E+02   5.000000E+02   5.000000E+02   5.000000E+02   5.000000E+02   5.000000E+02   5.000000E+02   5.000000E+02   5.000000E+02   5.000000E+02   5.000000E+02   5.000000E+02   5.000000E+02   5.000000E+02   5.000000E+02   5.299100E+02   5.470300E+02   5.474900E+02   5.484400E+02   5.491500E+02   5.495800E+02   5.506300E+02   5.516000E+02   5.525500E+02   5.540700E+02   5.552200E+02   5.560700E+02   5.572300E+02   5.609000E+02   5.625600E+02   5.647000E+02   5.667000E+02   5.688600E+02   5.709500E+02   5.722900E+02   5.766700E+02   5.798500E+02   5.811100E+02   5.822800E+02   5.864000E+02   5.941000E+02   6.135000E+02   6.117200E+02   5.945600E+02   5.969900E+02   6.000000E+02   6.000000E+02   6.000000E+02   6.000000E+02   6.000000E+02   6.000000E+02   6.000000E+02   6.000000E+02   6.000000E+02   6.000000E+02   6.000000E+02   6.000000E+02   6.000000E+02   6.000000E+02   6.000000E+02   6.000000E+02   6.000000E+02   6.000000E+02   6.000000E+02   6.000000E+02   6.000000E+02   6.000000E+02   6.000000E+02   6.000000E+02   6.000000E+02   6.000000E+02   6.000000E+02   6.000000E+02   6.000000E+02   6.000000E+02   6.000000E+02   6.000000E+02   6.000000E+02   6.000000E+02   6.000000E+02   6.000000E+02   6.000000E+02   6.000000E+02   6.000000E+02   6.000000E+02   6.000000E+02   6.000000E+02   6.000000E+02   6.000000E+02   6.000000E+02   6.000000E+02   6.000000E+02   6.000000E+02   6.000000E+02   6.000000E+02   6.000000E+02   6.000000E+02   6.000000E+02   6.000000E+02   6.000000E+02   6.000000E+02   6.000000E+02   6.000000E+02   6.000000E+02   6.000000E+02   6.000000E+02   6.000000E+02   6.000000E+02   6.000000E+02   6.000000E+02   6.000000E+02   6.000000E+02   6.000000E+02   6.000000E+02   6.000000E+02   6.000000E+02   6.000000E+02   6.000000E+02   6.000000E+02   6.000000E+02   6.000000E+02   6.000000E+02   6.000000E+02   6.000000E+02   6.000000E+02   6.000000E+02   6.000000E+02   6.000000E+02   6.076500E+02   6.406600E+02   6.440700E+02   6.452400E+02   6.468300E+02   6.404900E+02   6.394100E+02   6.420800E+02   6.432400E+02   6.444100E+02   6.455800E+02   6.470800E+02   6.482500E+02   6.492100E+02   6.486800E+02   6.471200E+02   6.511000E+02   6.522200E+02   6.529200E+02   6.535400E+02   6.544100E+02   6.552800E+02   6.557300E+02   6.562300E+02   6.566400E+02   6.569800E+02   6.573000E+02   6.585600E+02   6.593900E+02   6.704000E+02   6.893700E+02   7.000000E+02   7.000000E+02   7.000000E+02   7.000000E+02   7.000000E+02   7.000000E+02   7.000000E+02   7.000000E+02   7.000000E+02   7.000000E+02   7.000000E+02   7.000000E+02   7.000000E+02   7.000000E+02   7.000000E+02   7.000000E+02   7.000000E+02   7.000000E+02   7.000000E+02   7.000000E+02   7.000000E+02   7.000000E+02   7.000000E+02   7.000000E+02   7.000000E+02   7.000000E+02   7.000000E+02   7.000000E+02   7.000000E+02   7.000000E+02   7.000000E+02   7.000000E+02   7.000000E+02   7.000000E+02   7.000000E+02   7.000000E+02   7.000000E+02   7.000000E+02   7.000000E+02   7.000000E+02   7.000000E+02   7.000000E+02   7.000000E+02   7.000000E+02   7.000000E+02   7.000000E+02   7.000000E+02   7.000000E+02   7.375700E+02   7.354200E+02   7.374500E+02   7.402100E+02   7.430400E+02   7.458900E+02   7.487600E+02   7.516100E+02   7.555100E+02   8.029700E+02   8.110700E+02   8.037800E+02   8.061900E+02
   8.122500E+00   9.366000E+00   4.706000E+01   3.512100E+01   2.520600E+01   2.409300E+01   2.363000E+01   2.418100E+01   2.601000E+01   3.746500E+01   4.272000E+01   3.950100E+01   3.319900E+01   3.359600E+01   3.663400E+01   4.698500E+01   4.948900E+01   4.990800E+01   5.071400E+01   5.226700E+01   5.288000E+01   9.815800E+01   2.118100E+02   2.099300E+02   2.141400E+02   2.195400E+02   2.251000E+02   2.308700E+02   2.441400E+02   2.515600E+02   2.572300E+02   2.658300E+02   2.730200E+02   2.815200E+02   2.901100E+02   2.961400E+02   3.016000E+02   3.070300E+02   3.124500E+02   3.178300E+02   3.225300E+02   3.217600E+02   3.274300E+02   3.329000E+02   3.383700E+02   3.434800E+02   3.594900E+02   5.094300E+02   5.055000E+02   5.000000E+02   5.000000E+02   5.000000E+02   5.000000E+02   5.000000E+02   5.000000E+02   5.000000E+02   5.000000E+02   5.000000E+02   5.000000E+02   5.000000E+02   5.000000E+02   5.000000E+02   5.000000E+02   5.000000E+02   5.000000E+02   5.000000E+02   5.000000E+02   5.000000E+02   5.000000E+02   5.000000E+02   5.000000E+02   5.000000E+02   5.000000E+02   5.000000E+02   5.000000E+02   5.000000E+02   5.000000E+02   5.000000E+02   5.000000E+02   5.000000E+02   5.000000E+02   5.000000E+02   5.000000E+02   5.000000E+02   5.000000E+02   5.000000E+02   5.000000E+02   5.000000E+02   5.000000E+02   5.000000E+02   5.000000E+02   5.000000E+02   5.000000E+02   5.000000E+02   5.000000E+02   5.000000E+02   5.000000E+02   5.000000E+02   5.000000E+02   5.000000E+02   5.000000E+02   5.000000E+02   5.000000E+02   5.000000E+02   5.000000E+02   5.000000E+02   5.000000E+02   5.000000E+02   5.000000E+02   5.140000E+02   5.458400E+02   5.465400E+02   5.477600E+02   5.481500E+02   5.493300E+02   5.494200E+02   5.507200E+02   5.515400E+02   5.529000E+02   5.542200E+02   5.554500E+02   5.563200E+02   5.594600E+02   5.612400E+02   5.634900E+02   5.657800E+02   5.679600E+02   5.704700E+02   5.734700E+02   5.763000E+02   5.789100E+02   5.808900E+02   5.821500E+02   5.863300E+02   5.940700E+02   6.134500E+02   6.117800E+02   5.947800E+02   6.000000E+02   6.000000E+02   6.000000E+02   6.000000E+02   6.000000E+02   6.000000E+02   6.000000E+02   6.000000E+02   6.000000E+02   6.000000E+02   6.000000E+02   6.000000E+02   6.000000E+02   6.000000E+02   6.000000E+02   6.000000E+02   6.000000E+02   6.000000E+02   6.000000E+02   6.000000E+02   6.000000E+02   6.000000E+02   6.000000E+02   6.000000E+02   6.000000E+02   6.000000E+02   6.000000E+02   6.000000E+02   6.000000E+02   6.000000E+02   6.000000E+02   6.000000E+02   6.000000E+02   6.000000E+02   6.000000E+02   6.000000E+02   6.000000E+02   6.000000E+02   6.000000E+02   6.000000E+02   6.000000E+02   6.000000E+02   6.000000E+02   6.000000E+02   6.000000E+02   6.000000E+02   6.000000E+02   6.000000E+02   6.000000E+02   6.000000E+02   6.000000E+02   6.000000E+02   6.000000E+02   6.000000E+02   6.000000E+02   6.000000E+02   6.000000E+02   6.000000E+02   6.000000E+02   6.000000E+02   6.000000E+02   6.000000E+02   6.000000E+02   6.000000E+02   6.000000E+02   6.000000E+02   6.000000E+02   6.000000E+02   6.000000E+02   6.000000E+02   6.000000E+02   6.000000E+02   6.000000E+02   6.000000E+02   6.000000E+02   6.000000E+02   6.000000E+02   6.000000E+02   6.000000E+02   6.000000E+02   6.000000E+02   6.000000E+02   6.000000E+02   6.000000E+02   6.075500E+02   6.407500E+02   6.440800E+02   6.448300E+02   6.467900E+02   6.403400E+02   6.378700E+02   6.420800E+02   6.433100E+02   6.445500E+02   6.461000E+02   6.473600E+02   6.486000E+02   6.496400E+02   6.491800E+02   6.484600E+02   6.485400E+02   6.525400E+02   6.534500E+02   6.543000E+02   6.552800E+02   6.559300E+02   6.566200E+02   6.569900E+02   6.573500E+02   6.578500E+02   6.582400E+02   6.721600E+02   6.916300E+02   7.000000E+02   7.000000E+02   7.000000E+02   7.000000E+02   7.000000E+02   7.000000E+02   7.000000E+02   7.000000E+02   7.000000E+02   7.000000E+02   7.000000E+02   7.000000E+02   7.000000E+02   7.000000E+02   7.000000E+02   7.000000E+02   7.000000E+02   7.000000E+02   7.000000E+02   7.000000E+02   7.000000E+02   7.000000E+02   7.000000E+02   7.000000E+02   7.000000E+02   7.000000E+02   7.000000E+02   7.000000E+02   7.000000E+02   7.000000E+02   7.000000E+02   7.000000E+02   7.000000E+02   7.000000E+02   7.000000E+02   7.000000E+02   7.000000E+02   7.000000E+02   7.000000E+02   7.000000E+02   7.000000E+02   7.000000E+02   7.000000E+02   7.000000E+02   7.000000E+02   7.000000E+02   7.000000E+02   7.000000E+02   7.000000E+02   7.000000E+02   7.366500E+02   7.346900E+02   7.368500E+02   7.398100E+02   7.428400E+02   7.459100E+02   7.489900E+02   7.520500E+02   7.562000E+02   8.029900E+02   8.113200E+02   8.039600E+02   8.064000E+02
   6.184100E+00   8.589300E+00   4.912000E+01   2.351900E+01   2.513300E+01   2.421500E+01   2.369100E+01   2.411700E+01   2.431800E+01   2.546200E+01   3.687500E+01   3.869200E+01   3.268900E+01   3.321400E+01   3.624500E+01   4.528800E+01   4.869600E+01   4.935100E+01   5.044200E+01   5.167300E+01   5.313400E+01   9.604400E+01   2.034200E+02   2.020100E+02   2.080300E+02   2.142800E+02   2.203000E+02   2.343400E+02   2.412200E+02   2.474600E+02   2.537700E+02   2.622800E+02   2.713000E+02   2.807900E+02   2.889300E+02   2.951700E+02   3.015900E+02   3.082900E+02   3.148400E+02   3.209800E+02   3.264700E+02   3.268800E+02   3.335500E+02   3.396300E+02   3.450200E+02   3.508600E+02   3.671100E+02   5.086500E+02   5.091800E+02   5.000000E+02   5.000000E+02   5.000000E+02   5.000000E+02   5.000000E+02   5.000000E+02   5.000000E+02   5.000000E+02   5.000000E+02   5.000000E+02   5.000000E+02   5.000000E+02   5.000000E+02   5.000000E+02   5.000000E+02   5.000000E+02   5.000000E+02   5.000000E+02   5.000000E+02   5.000000E+02   5.000000E+02   5.000000E+02   5.000000E+02   5.000000E+02   5.000000E+02   5.000000E+02   5.000000E+02   5.000000E+02   5.000000E+02   5.000000E+02   5.000000E+02   5.000000E+02   5.000000E+02   5.000000E+02   5.000000E+02   5.000000E+02   5.000000E+02   5.000000E+02   5.000000E+02   5.000000E+02   5.000000E+02   5.000000E+02   5.000000E+02   5.000000E+02   5.000000E+02   5.000000E+02   5.000000E+02   5.000000E+02   5.000000E+02   5.000000E+02   5.000000E+02   5.000000E+02   5.000000E+02   5.000000E+02   5.000000E+02   5.000000E+02   5.000000E+02   5.000000E+02   5.000000E+02   5.000000E+02   5.000000E+02   5.263700E+02   5.453900E+02   5.461400E+02   5.473900E+02   5.478200E+02   5.490800E+02   5.492000E+02   5.505600E+02   5.516100E+02   5.529400E+02   5.543300E+02   5.553800E+02   5.566900E+02   5.605900E+02   5.621100E+02   5.642600E+02   5.673800E+02   5.689000E+02   5.745600E+02   5.759100E+02   5.785700E+02   5.806500E+02   5.819900E+02   5.862500E+02   5.940400E+02   6.133900E+02   6.118400E+02   5.950300E+02   6.000000E+02   6.000000E+02   6.000000E+02   6.000000E+02   6.000000E+02   6.000000E+02   6.000000E+02   6.000000E+02   6.000000E+02   6.000000E+02   6.000000E+02   6.000000E+02   6.000000E+02   6.000000E+02   6.000000E+02   6.000000E+02   6.000000E+02   6.000000E+02   6.000000E+02   6.000000E+02   6.000000E+02   6.000000E+02   6.000000E+02   6.000000E+02   6.000000E+02   6.000000E+02   6.000000E+02   6.000000E+02   6.000000E+02   6.000000E+02   6.000000E+02   6.000000E+02   6.000000E+02   6.000000E+02   6.000000E+02   6.000000E+02   6.000000E+02   6.000000E+02   6.000000E+02   6.000000E+02   6.000000E+02   6.000000E+02   6.000000E+02   6.000000E+02   6.000000E+02   6.000000E+02   6.000000E+02   6.000000E+02   6.000000E+02   6.000000E+02   6.000000E+02   6.000000E+02   6.000000E+02   6.000000E+02   6.000000E+02   6.000000E+02   6.000000E+02   6.000000E+02   6.000000E+02   6.000000E+02   6.000000E+02   6.000000E+02   6.000000E+02   6.000000E+02   6.000000E+02   6.000000E+02   6.000000E+02   6.000000E+02   6.000000E+02   6.000000E+02   6.000000E+02   6.000000E+02   6.000000E+02   6.000000E+02   6.000000E+02   6.000000E+02   6.000000E+02   6.000000E+02   6.000000E+02   6.000000E+02   6.000000E+02   6.000000E+02   6.000000E+02   6.000000E+02   6.075400E+02   6.402300E+02   6.435700E+02   6.444700E+02   6.465400E+02   6.402800E+02   6.355700E+02   6.420800E+02   6.434000E+02   6.448900E+02   6.463600E+02   6.476900E+02   6.490100E+02   6.501100E+02   6.497000E+02   6.496600E+02   6.492600E+02   6.533400E+02   6.540800E+02   6.551400E+02   6.558600E+02   6.569000E+02   6.574100E+02   6.579500E+02   6.583700E+02   6.909100E+02   7.000000E+02   7.000000E+02   7.000000E+02   7.000000E+02   7.000000E+02   7.000000E+02   7.000000E+02   7.000000E+02   7.000000E+02   7.000000E+02   7.000000E+02   7.000000E+02   7.000000E+02   7.000000E+02   7.000000E+02   7.000000E+02   7.000000E+02   7.000000E+02   7.000000E+02   7.000000E+02   7.000000E+02   7.000000E+02   7.000000E+02   7.000000E+02   7.000000E+02   7.000000E+02   7.000000E+02   7.000000E+02   7.000000E+02   7.000000E+02   7.000000E+02   7.000000E+02   7.000000E+02   7.000000E+02   7.000000E+02   7.000000E+02   7.000000E+02   7.000000E+02   7.000000E+02   7.000000E+02   7.000000E+02   7.000000E+02   7.000000E+02   7.000000E+02   7.000000E+02   7.000000E+02   7.000000E+02   7.000000E+02   7.000000E+02   7.000000E+02   7.000000E+02   7.000000E+02   7.000000E+02   7.355900E+02   7.338500E+02   7.361700E+02   7.393500E+02   7.426200E+02   7.459300E+02   7.492600E+02   7.525700E+02   7.556700E+02   8.030200E+02   8.116200E+02   8.041600E+02   8.066400E+02
   5.198800E+00   6.759500E+00   4.954000E+01   2.243200E+01   2.499700E+01   2.415900E+01   2.383000E+01   2.421600E+01   2.424700E+01   2.441700E+01   2.495900E+01   2.566300E+01   3.264100E+01   3.320800E+01   3.571200E+01   4.441500E+01   4.607200E+01   4.861100E+01   5.008000E+01   5.184200E+01   5.339800E+01   5.443200E+01   8.512000E+01   1.921900E+02   1.999000E+02   2.073000E+02   2.221900E+02   2.291800E+02   2.362600E+02   2.432100E+02   2.539600E+02   2.624900E+02   2.696100E+02   2.769400E+02   2.844400E+02   2.932300E+02   3.025300E+02   3.097500E+02   3.169700E+02   3.243800E+02   3.318300E+02   3.334800E+02   3.412600E+02   3.475600E+02   3.539200E+02   3.626800E+02   3.996300E+02   5.078400E+02   5.092700E+02   5.000000E+02   5.000000E+02   5.000000E+02   5.000000E+02   5.000000E+02   5.000000E+02   5.000000E+02   5.000000E+02   5.000000E+02   5.000000E+02   5.000000E+02   5.000000E+02   5.000000E+02   5.000000E+02   5.000000E+02   5.000000E+02   5.000000E+02   5.000000E+02   5.000000E+02   5.000000E+02   5.000000E+02   5.000000E+02   5.000000E+02   5.000000E+02   5.000000E+02   5.000000E+02   5.000000E+02   5.000000E+02   5.000000E+02   5.000000E+02   5.000000E+02   5.000000E+02   5.000000E+02   5.000000E+02   5.000000E+02   5.000000E+02   5.000000E+02   5.000000E+02   5.000000E+02   5.000000E+02   5.000000E+02   5.000000E+02   5.000000E+02   5.000000E+02   5.000000E+02   5.000000E+02   5.000000E+02   5.000000E+02   5.000000E+02   5.000000E+02   5.000000E+02   5.000000E+02   5.000000E+02   5.000000E+02   5.000000E+02   5.000000E+02   5.000000E+02   5.000000E+02   5.000000E+02   5.000000E+02   5.000000E+02   5.000000E+02   5.013900E+02   5.434300E+02   5.460100E+02   5.472000E+02   5.477400E+02   5.487400E+02   5.490100E+02   5.506300E+02   5.515300E+02   5.531200E+02   5.545300E+02   5.557000E+02   5.585000E+02   5.609100E+02   5.629000E+02   5.657200E+02   5.683800E+02   5.740800E+02   5.754000E+02   5.781700E+02   5.803600E+02   5.818400E+02   5.861600E+02   5.940100E+02   6.133200E+02   6.119100E+02   6.023700E+02   6.000000E+02   6.000000E+02   6.000000E+02   6.000000E+02   6.000000E+02   6.000000E+02   6.000000E+02   6.000000E+02   6.000000E+02   6.000000E+02   6.000000E+02   6.000000E+02   6.000000E+02   6.000000E+02   6.000000E+02   6.000000E+02   6.000000E+02   6.000000E+02   6.000000E+02   6.000000E+02   6.000000E+02   6.000000E+02   6.000000E+02   6.000000E+02   6.000000E+02   6.000000E+02   6.000000E+02   6.000000E+02   6.000000E+02   6.000000E+02   6.000000E+02   6.000000E+02   6.000000E+02   6.000000E+02   6.000000E+02   6.000000E+02   6.000000E+02   6.000000E+02   6.000000E+02   6.000000E+02   6.000000E+02   6.000000E+02   6.000000E+02   6.000000E+02   6.000000E+02   6.000000E+02   6.000000E+02   6.000000E+02   6.000000E+02   6.000000E+02   6.000000E+02   6.000000E+02   6.000000E+02   6.000000E+02   6.000000E+02   6.000000E+02   6.000000E+02   6.000000E+02   6.000000E+02   6.000000E+02   6.000000E+02   6.000000E+02   6.000000E+02   6.000000E+02   6.000000E+02   6.000000E+02   6.000000E+02   6.000000E+02   6.000000E+02   6.000000E+02   6.000000E+02   6.000000E+02   6.000000E+02   6.000000E+02   6.000000E+02   6.000000E+02   6.000000E+02   6.000000E+02   6.000000E+02   6.000000E+02   6.000000E+02   6.000000E+02   6.000000E+02   6.000000E+02   6.074100E+02   6.396100E+02   6.429500E+02   6.443600E+02   6.460900E+02   6.400800E+02   6.356000E+02   6.420800E+02   6.435500E+02   6.452200E+02   6.466400E+02   6.480500E+02   6.494700E+02   6.506600E+02   6.503800E+02   6.500900E+02   6.494900E+02   6.538000E+02   6.549700E+02   6.558400E+02   6.569400E+02   6.577800E+02   6.585200E+02   6.961100E+02   7.000000E+02   7.000000E+02   7.000000E+02   7.000000E+02   7.000000E+02   7.000000E+02   7.000000E+02   7.000000E+02   7.000000E+02   7.000000E+02   7.000000E+02   7.000000E+02   7.000000E+02   7.000000E+02   7.000000E+02   7.000000E+02   7.000000E+02   7.000000E+02   7.000000E+02   7.000000E+02   7.000000E+02   7.000000E+02   7.000000E+02   7.000000E+02   7.000000E+02   7.000000E+02   7.000000E+02   7.000000E+02   7.000000E+02   7.000000E+02   7.000000E+02   7.000000E+02   7.000000E+02   7.000000E+02   7.000000E+02   7.000000E+02   7.000000E+02   7.000000E+02   7.000000E+02   7.000000E+02   7.000000E+02   7.000000E+02   7.000000E+02   7.000000E+02   7.000000E+02   7.000000E+02   7.000000E+02   7.000000E+02   7.000000E+02   7.000000E+02   7.000000E+02   7.000000E+02   7.000000E+02   7.000000E+02   7.000000E+02   7.343800E+02   7.328900E+02   7.353800E+02   7.388200E+02   7.423600E+02   7.459600E+02   7.495800E+02   7.531600E+02   7.566100E+02   8.030500E+02   8.119700E+02   8.044000E+02   8.069100E+02